<?xml version="1.0" encoding="UTF-8"?>

<!-- generated on 2025-03-15 00:02:02.411949 by randomTrips.py v1_22_0+0002-63e50f52594
<configuration>
    <net-file value="astana.net.xml"/>
    <output-trip-file value="astana.rou.xml"/>
    <seed value="26"/>
    <end value="600.0"/>
    <period value="1.0"/>
</configuration>
-->

<routes xmlns:xsi="http://www.w3.org/2001/XMLSchema-instance" xsi:noNamespaceSchemaLocation="http://sumo.dlr.de/xsd/routes_file.xsd">
    <trip id="0" depart="0.00" from="608042208" to="-669462279#1"/>
    <trip id="1" depart="1.00" from="-706121786#1" to="445860944#4"/>
    <trip id="2" depart="2.00" from="-1353710551#1" to="688297556#3"/>
    <trip id="3" depart="3.00" from="628842641#3" to="-120264224#5"/>
    <trip id="4" depart="4.00" from="513046079#2" to="244168492#2"/>
    <trip id="5" depart="5.00" from="500208385#0" to="823796096#1"/>
    <trip id="6" depart="6.00" from="966335512#0" to="165762201#1"/>
    <trip id="7" depart="7.00" from="730190093#1" to="688297715#1"/>
    <trip id="8" depart="8.00" from="936631568#1" to="-112648634#3"/>
    <trip id="9" depart="9.00" from="77617941#9" to="-762778202#0"/>
    <trip id="10" depart="10.00" from="-262321169#1" to="445671108#30"/>
    <trip id="11" depart="11.00" from="730188747#0" to="824518219#2"/>
    <trip id="12" depart="12.00" from="1218161695" to="723049184#4"/>
    <trip id="13" depart="13.00" from="-1144625273#2" to="915349163#6"/>
    <trip id="14" depart="14.00" from="107829322#3" to="258761300#1"/>
    <trip id="15" depart="15.00" from="-258084900#0" to="-1216965012#0"/>
    <trip id="16" depart="16.00" from="-103776366" to="445860944#2"/>
    <trip id="17" depart="17.00" from="269115013#5" to="698227102#2"/>
    <trip id="18" depart="18.00" from="734361223#0" to="178064166#8"/>
    <trip id="19" depart="19.00" from="734360467#3" to="-649773313#2"/>
    <trip id="20" depart="20.00" from="735037061#6" to="103775973#1"/>
    <trip id="21" depart="21.00" from="779802076#4" to="1364232975#5"/>
    <trip id="22" depart="22.00" from="182131358" to="24672017#9"/>
    <trip id="23" depart="23.00" from="-1364232975#4" to="-237347730#4"/>
    <trip id="24" depart="24.00" from="259014518#0" to="521162952#8"/>
    <trip id="25" depart="25.00" from="-121742129#1" to="165625148#3"/>
    <trip id="26" depart="26.00" from="1283638263" to="688297712#6"/>
    <trip id="27" depart="27.00" from="966335514#9" to="-243047609#1"/>
    <trip id="28" depart="28.00" from="258761300#0" to="-244156064#1"/>
    <trip id="29" depart="29.00" from="688297714#0" to="779802079#10"/>
    <trip id="30" depart="30.00" from="520218960#4" to="425124336#1"/>
    <trip id="31" depart="31.00" from="-120264224#13" to="-243769166#2"/>
    <trip id="32" depart="32.00" from="-867655021#0" to="-241619856#5"/>
    <trip id="33" depart="33.00" from="-269115013#11" to="841517769"/>
    <trip id="34" depart="34.00" from="1181247809#1" to="743211483"/>
    <trip id="35" depart="35.00" from="611248339" to="688297556#0"/>
    <trip id="36" depart="36.00" from="753633688" to="514449834#5"/>
    <trip id="37" depart="37.00" from="1181247809#0" to="241619856#2"/>
    <trip id="38" depart="38.00" from="161762332#4" to="-1154972261#2"/>
    <trip id="39" depart="39.00" from="-1216965012#1" to="30658827"/>
    <trip id="40" depart="40.00" from="24672599" to="936631569#0"/>
    <trip id="41" depart="41.00" from="474774138#0" to="704131722#2"/>
    <trip id="42" depart="42.00" from="241619863#1" to="425476446#0"/>
    <trip id="43" depart="43.00" from="698225928#7" to="-1181247807#2"/>
    <trip id="44" depart="44.00" from="-107829322#3" to="222722292#7"/>
    <trip id="45" depart="45.00" from="107829320#2" to="222722292#12"/>
    <trip id="46" depart="46.00" from="-161762335#4" to="-514970222"/>
    <trip id="47" depart="47.00" from="-243769167#4" to="449379702#7"/>
    <trip id="48" depart="48.00" from="-1161583208" to="-107829325#0"/>
    <trip id="49" depart="49.00" from="513046071#0" to="178064166#8"/>
    <trip id="50" depart="50.00" from="-1089868524#2" to="779802078#2"/>
    <trip id="51" depart="51.00" from="243769162#4" to="779801901"/>
    <trip id="52" depart="52.00" from="501324209#5" to="259714716"/>
    <trip id="53" depart="53.00" from="161762342#0" to="-244139333#1"/>
    <trip id="54" depart="54.00" from="910569072#2" to="227893839#4"/>
    <trip id="55" depart="55.00" from="1086841542#6" to="-474772535"/>
    <trip id="56" depart="56.00" from="445671108#23" to="965512762#5"/>
    <trip id="57" depart="57.00" from="165608307#4" to="697127228#7"/>
    <trip id="58" depart="58.00" from="514781052#3" to="24672017#11"/>
    <trip id="59" depart="59.00" from="501428050#3" to="549292867#3"/>
    <trip id="60" depart="60.00" from="762781545#0" to="-1216965012#1"/>
    <trip id="61" depart="61.00" from="-460703786#1" to="-868103379#0"/>
    <trip id="62" depart="62.00" from="-230409107#2" to="107829262#1"/>
    <trip id="63" depart="63.00" from="227893834#10" to="-735055153"/>
    <trip id="64" depart="64.00" from="244156061#5" to="-103776304#1"/>
    <trip id="65" depart="65.00" from="753633689#3" to="521865928"/>
    <trip id="66" depart="66.00" from="-244156061#4" to="-735043084#4"/>
    <trip id="67" depart="67.00" from="610186052#0" to="-460703786#0"/>
    <trip id="68" depart="68.00" from="557081354#3" to="-1196004765#0"/>
    <trip id="69" depart="69.00" from="477114790#1" to="513046071#2"/>
    <trip id="70" depart="70.00" from="258656398#1" to="696897739#3"/>
    <trip id="71" depart="71.00" from="779802076#3" to="965512763#5"/>
    <trip id="72" depart="72.00" from="-1308866082#0" to="243215793#11"/>
    <trip id="73" depart="73.00" from="-244805455" to="607452620#0"/>
    <trip id="74" depart="74.00" from="-734360466" to="-513701191#1"/>
    <trip id="75" depart="75.00" from="-1364232975#6" to="-107829262#1"/>
    <trip id="76" depart="76.00" from="103776396#1" to="-607452622#0"/>
    <trip id="77" depart="77.00" from="24844112#1" to="704151028#2"/>
    <trip id="78" depart="78.00" from="522977365#1" to="1116705495"/>
    <trip id="79" depart="79.00" from="103776064#0" to="688297711"/>
    <trip id="80" depart="80.00" from="107829248#1" to="501324209#5"/>
    <trip id="81" depart="81.00" from="917251137#3" to="411082203"/>
    <trip id="82" depart="82.00" from="241619857" to="-1243028961"/>
    <trip id="83" depart="83.00" from="103776396#2" to="814807513#1"/>
    <trip id="84" depart="84.00" from="-1353710552" to="-1346553829"/>
    <trip id="85" depart="85.00" from="448259696#0" to="1087660620#1"/>
    <trip id="86" depart="86.00" from="445671108#6" to="-823436175"/>
    <trip id="87" depart="87.00" from="-736834155#7" to="103775973#7"/>
    <trip id="88" depart="88.00" from="521162952#10" to="514449831#1"/>
    <trip id="89" depart="89.00" from="-112181643#1" to="520249712#3"/>
    <trip id="90" depart="90.00" from="628842631#0" to="241619855#2"/>
    <trip id="91" depart="91.00" from="-243215793#9" to="-107829253#1"/>
    <trip id="92" depart="92.00" from="965512760#1" to="-243769180#0"/>
    <trip id="93" depart="93.00" from="-103775973#3" to="-161762332#0"/>
    <trip id="94" depart="94.00" from="743211483" to="983093050#5"/>
    <trip id="95" depart="95.00" from="611248339" to="779802076#5"/>
    <trip id="96" depart="96.00" from="697128091#1" to="-236958513#2"/>
    <trip id="97" depart="97.00" from="1348755703#1" to="500460268#8"/>
    <trip id="98" depart="98.00" from="513046092#0" to="628842644"/>
    <trip id="99" depart="99.00" from="514449819#2" to="-245598149#2"/>
    <trip id="100" depart="100.00" from="161762344" to="779802079#7"/>
    <trip id="101" depart="101.00" from="500907947#9" to="-557081355#10"/>
    <trip id="102" depart="102.00" from="165816979#0" to="824086183#0"/>
    <trip id="103" depart="103.00" from="103776396#0" to="-244139333#1"/>
    <trip id="104" depart="104.00" from="698225897" to="501393465#0"/>
    <trip id="105" depart="105.00" from="1243028961" to="241619853#3"/>
    <trip id="106" depart="106.00" from="1069902922" to="514449817#1"/>
    <trip id="107" depart="107.00" from="107829336#6" to="261509800#2"/>
    <trip id="108" depart="108.00" from="762778204#3" to="503812669#22"/>
    <trip id="109" depart="109.00" from="1184292630" to="-344642657#1"/>
    <trip id="110" depart="110.00" from="244156055#0" to="-1243028960#1"/>
    <trip id="111" depart="111.00" from="669462279#0" to="241619855#0"/>
    <trip id="112" depart="112.00" from="230361893#3" to="107829336#11"/>
    <trip id="113" depart="113.00" from="514970223#1" to="230361893#2"/>
    <trip id="114" depart="114.00" from="227893839#6" to="-734370423#2"/>
    <trip id="115" depart="115.00" from="-241619855#2" to="-241619843#0"/>
    <trip id="116" depart="116.00" from="-823796096#0" to="607127142#2"/>
    <trip id="117" depart="117.00" from="506049359" to="-607452621#0"/>
    <trip id="118" depart="118.00" from="-1154972261#0" to="1077482126#7"/>
    <trip id="119" depart="119.00" from="513046078" to="-917251137#1"/>
    <trip id="120" depart="120.00" from="236958515#1" to="-24844112#1"/>
    <trip id="121" depart="121.00" from="689189362#4" to="37883875#1"/>
    <trip id="122" depart="122.00" from="227893838" to="966335514#4"/>
    <trip id="123" depart="123.00" from="244292559#0" to="107829253#6"/>
    <trip id="124" depart="124.00" from="513046079#3" to="823420163#0"/>
    <trip id="125" depart="125.00" from="479421384#1" to="762778204#8"/>
    <trip id="126" depart="126.00" from="261509800#3" to="107829336#11"/>
    <trip id="127" depart="127.00" from="500907947#1" to="-161762342#1"/>
    <trip id="128" depart="128.00" from="966335508#1" to="244168492#4"/>
    <trip id="129" depart="129.00" from="-1154972262" to="1086841542#10"/>
    <trip id="130" depart="130.00" from="477114791#1" to="734363104#0"/>
    <trip id="131" depart="131.00" from="762778203#8" to="1222201730#0"/>
    <trip id="132" depart="132.00" from="735055151" to="244292559#1"/>
    <trip id="133" depart="133.00" from="366420577#5" to="734371299#2"/>
    <trip id="134" depart="134.00" from="521865930#4" to="28695630#0"/>
    <trip id="135" depart="135.00" from="-107829286#1" to="1175582462#3"/>
    <trip id="136" depart="136.00" from="607127147#1" to="165808702#1"/>
    <trip id="137" depart="137.00" from="-1116705543#0" to="734363105#8"/>
    <trip id="138" depart="138.00" from="121742129#1" to="605698749"/>
    <trip id="139" depart="139.00" from="1181261286" to="1227258331"/>
    <trip id="140" depart="140.00" from="445671107#6" to="244831723#5"/>
    <trip id="141" depart="141.00" from="762778204#9" to="442359382#1"/>
    <trip id="142" depart="142.00" from="1189551423#0" to="262329420#21"/>
    <trip id="143" depart="143.00" from="610163030#0" to="587517165#3"/>
    <trip id="144" depart="144.00" from="-107829262#3" to="24672293#7"/>
    <trip id="145" depart="145.00" from="735055153" to="241619856#6"/>
    <trip id="146" depart="146.00" from="-507845086#3" to="-460703786#0"/>
    <trip id="147" depart="147.00" from="258269789#13" to="698225928#0"/>
    <trip id="148" depart="148.00" from="629228208" to="161762338#2"/>
    <trip id="149" depart="149.00" from="-1308866082#0" to="1087660620#6"/>
    <trip id="150" depart="150.00" from="445671108#0" to="243769177#0"/>
    <trip id="151" depart="151.00" from="165600642#2" to="-689189362#5"/>
    <trip id="152" depart="152.00" from="235846743#1" to="-51180025#2"/>
    <trip id="153" depart="153.00" from="500208385#0" to="-499045225"/>
    <trip id="154" depart="154.00" from="-501188656" to="77617941#2"/>
    <trip id="155" depart="155.00" from="-1090266547" to="1196004765#0"/>
    <trip id="156" depart="156.00" from="244139326" to="-244156064#1"/>
    <trip id="157" depart="157.00" from="1207945372#4" to="735043819#1"/>
    <trip id="158" depart="158.00" from="649748229" to="1149796889#0"/>
    <trip id="159" depart="159.00" from="161762332#4" to="107829253#6"/>
    <trip id="160" depart="160.00" from="724875226#1" to="1087660955#9"/>
    <trip id="161" depart="161.00" from="610163050" to="868103379#1"/>
    <trip id="162" depart="162.00" from="107829272#0" to="498820158#1"/>
    <trip id="163" depart="163.00" from="698225928#11" to="258269789#3"/>
    <trip id="164" depart="164.00" from="762781545#1" to="107829258"/>
    <trip id="165" depart="165.00" from="241619856#4" to="120264224#1"/>
    <trip id="166" depart="166.00" from="107829288" to="823796096#1"/>
    <trip id="167" depart="167.00" from="-161762332#0" to="120264224#5"/>
    <trip id="168" depart="168.00" from="965512763#3" to="1076788022"/>
    <trip id="169" depart="169.00" from="51180026#2" to="734373257#6"/>
    <trip id="170" depart="170.00" from="-824518219#2" to="-735043084#4"/>
    <trip id="171" depart="171.00" from="512841853#7" to="-161762337#1"/>
    <trip id="172" depart="172.00" from="449379702#7" to="735050497#3"/>
    <trip id="173" depart="173.00" from="735389752#1" to="739600684#1"/>
    <trip id="174" depart="174.00" from="242609225#3" to="698225928#8"/>
    <trip id="175" depart="175.00" from="867655021#1" to="515604970#0"/>
    <trip id="176" depart="176.00" from="103775999#2" to="628842629"/>
    <trip id="177" depart="177.00" from="245598149#1" to="222722292#0"/>
    <trip id="178" depart="178.00" from="-51180026#3" to="704151029#5"/>
    <trip id="179" depart="179.00" from="51180025#0" to="-1183800411"/>
    <trip id="180" depart="180.00" from="-661338021#0" to="-120264224#12"/>
    <trip id="181" depart="181.00" from="258761300#4" to="521865932"/>
    <trip id="182" depart="182.00" from="1175582593#1" to="-546538329#8"/>
    <trip id="183" depart="183.00" from="161762332#5" to="474772534#1"/>
    <trip id="184" depart="184.00" from="-1227258332" to="-241619856#0"/>
    <trip id="185" depart="185.00" from="506032055#4" to="744540290"/>
    <trip id="186" depart="186.00" from="366420577#2" to="-241619843#0"/>
    <trip id="187" depart="187.00" from="244805454#2" to="1076788023"/>
    <trip id="188" depart="188.00" from="258656398#3" to="1066564076#12"/>
    <trip id="189" depart="189.00" from="103776304#2" to="867655021#2"/>
    <trip id="190" depart="190.00" from="1207945372#2" to="230361893#3"/>
    <trip id="191" depart="191.00" from="983093045#1" to="230361893#0"/>
    <trip id="192" depart="192.00" from="1154972261#1" to="1066564076#5"/>
    <trip id="193" depart="193.00" from="-507094607#3" to="724875228#0"/>
    <trip id="194" depart="194.00" from="779802078#5" to="445671108#20"/>
    <trip id="195" depart="195.00" from="477114790#0" to="-244168492#9"/>
    <trip id="196" depart="196.00" from="-182131357" to="1230248232"/>
    <trip id="197" depart="197.00" from="-161762332#3" to="520256311#1"/>
    <trip id="198" depart="198.00" from="520249712#5" to="734360468#0"/>
    <trip id="199" depart="199.00" from="1348755703#8" to="244156064#0"/>
    <trip id="200" depart="200.00" from="-1364232975#7" to="165975916#2"/>
    <trip id="201" depart="201.00" from="744538872" to="-74925500#1"/>
    <trip id="202" depart="202.00" from="425476446#2" to="258761300#3"/>
    <trip id="203" depart="203.00" from="-823796096#1" to="107829325#4"/>
    <trip id="204" depart="204.00" from="-244156055#0" to="724875226#2"/>
    <trip id="205" depart="205.00" from="734373256#3" to="730188747#8"/>
    <trip id="206" depart="206.00" from="735282128" to="-107829327#3"/>
    <trip id="207" depart="207.00" from="-244156047" to="107829327#0"/>
    <trip id="208" depart="208.00" from="-474772535" to="513046076#0"/>
    <trip id="209" depart="209.00" from="447345848#2" to="1175582462#0"/>
    <trip id="210" depart="210.00" from="969980076#0" to="-107829262#2"/>
    <trip id="211" depart="211.00" from="-735043084#0" to="-521865930#1"/>
    <trip id="212" depart="212.00" from="-1283638265" to="107829336#10"/>
    <trip id="213" depart="213.00" from="51180026#0" to="965512760#5"/>
    <trip id="214" depart="214.00" from="259714715" to="-762778203#1"/>
    <trip id="215" depart="215.00" from="24672017#8" to="269115013#1"/>
    <trip id="216" depart="216.00" from="-524184033#3" to="51180026#4"/>
    <trip id="217" depart="217.00" from="734375697#8" to="512841849#1"/>
    <trip id="218" depart="218.00" from="-244280417#5" to="27679438#10"/>
    <trip id="219" depart="219.00" from="915349163#0" to="524184033#3"/>
    <trip id="220" depart="220.00" from="1180153753#1" to="103776396#0"/>
    <trip id="221" depart="221.00" from="688297716" to="107829322#2"/>
    <trip id="222" depart="222.00" from="917251137#0" to="823813454#1"/>
    <trip id="223" depart="223.00" from="425124336#1" to="-474774135#2"/>
    <trip id="224" depart="224.00" from="460703786#0" to="258269789#12"/>
    <trip id="225" depart="225.00" from="-103776413#0" to="-1348755703#3"/>
    <trip id="226" depart="226.00" from="241619855#6" to="235846743#5"/>
    <trip id="227" depart="227.00" from="-262321169#1" to="688295933#1"/>
    <trip id="228" depart="228.00" from="500907947#2" to="1066564076#13"/>
    <trip id="229" depart="229.00" from="688297556#4" to="398742585#3"/>
    <trip id="230" depart="230.00" from="121742129#3" to="500908854#4"/>
    <trip id="231" depart="231.00" from="-258761300#4" to="-1255523801"/>
    <trip id="232" depart="232.00" from="513046070#3" to="244831723#1"/>
    <trip id="233" depart="233.00" from="1218161696#1" to="222723081#5"/>
    <trip id="234" depart="234.00" from="500908854#0" to="-269114188#2"/>
    <trip id="235" depart="235.00" from="500460268#5" to="-474772534#2"/>
    <trip id="236" depart="236.00" from="762778578#9" to="1077482126#5"/>
    <trip id="237" depart="237.00" from="474772604#4" to="474772607#8"/>
    <trip id="238" depart="238.00" from="-241619864#3" to="-442359302"/>
    <trip id="239" depart="239.00" from="762778578#7" to="964634780#0"/>
    <trip id="240" depart="240.00" from="734361223#2" to="734363797#12"/>
    <trip id="241" depart="241.00" from="762778204#6" to="1144625273#2"/>
    <trip id="242" depart="242.00" from="-654386816" to="-521865928"/>
    <trip id="243" depart="243.00" from="1175582593#4" to="-411082204#0"/>
    <trip id="244" depart="244.00" from="157596617#0" to="546538329#11"/>
    <trip id="245" depart="245.00" from="244805452#1" to="-230409107#1"/>
    <trip id="246" depart="246.00" from="730190097#0" to="107829253#2"/>
    <trip id="247" depart="247.00" from="735050498#1" to="-241619842"/>
    <trip id="248" depart="248.00" from="-107829253#3" to="107829270#1"/>
    <trip id="249" depart="249.00" from="500460268#5" to="763945100#3"/>
    <trip id="250" depart="250.00" from="258656398#3" to="696345993#0"/>
    <trip id="251" depart="251.00" from="-1216965012#0" to="1087662750"/>
    <trip id="252" depart="252.00" from="230358843#5" to="-762778203#3"/>
    <trip id="253" depart="253.00" from="-1255523802" to="-121742129#2"/>
    <trip id="254" depart="254.00" from="-524184044#0" to="-587517165#1"/>
    <trip id="255" depart="255.00" from="1175582595#3" to="-107829322#4"/>
    <trip id="256" depart="256.00" from="445671107#6" to="724875224#5"/>
    <trip id="257" depart="257.00" from="512259858#3" to="107829256#12"/>
    <trip id="258" depart="258.00" from="243769166#1" to="724875228#2"/>
    <trip id="259" depart="259.00" from="1086841542#12" to="411082204#1"/>
    <trip id="260" depart="260.00" from="1364232975#5" to="1086841542#9"/>
    <trip id="261" depart="261.00" from="165625144" to="724875224#1"/>
    <trip id="262" depart="262.00" from="696345993#13" to="-243215793#14"/>
    <trip id="263" depart="263.00" from="513701191#2" to="696897739#4"/>
    <trip id="264" depart="264.00" from="474772604#4" to="-269114187#5"/>
    <trip id="265" depart="265.00" from="735282126#1" to="1283638263"/>
    <trip id="266" depart="266.00" from="241619863#4" to="500208385#2"/>
    <trip id="267" depart="267.00" from="-867655021#0" to="-161762335#3"/>
    <trip id="268" depart="268.00" from="835685075#1" to="493576724#3"/>
    <trip id="269" depart="269.00" from="-244156064#0" to="-1116705502#0"/>
    <trip id="270" depart="270.00" from="587517165#3" to="-1255523802"/>
    <trip id="271" depart="271.00" from="964634781" to="235846742#0"/>
    <trip id="272" depart="272.00" from="533825871" to="501324209#1"/>
    <trip id="273" depart="273.00" from="779802079#1" to="165816979#3"/>
    <trip id="274" depart="274.00" from="735049203" to="241619863#6"/>
    <trip id="275" depart="275.00" from="1175582593#5" to="242466145"/>
    <trip id="276" depart="276.00" from="1066564076#4" to="107829272#1"/>
    <trip id="277" depart="277.00" from="514449834#4" to="734363797#1"/>
    <trip id="278" depart="278.00" from="-269115013#12" to="258269789#6"/>
    <trip id="279" depart="279.00" from="513046071#0" to="411082203"/>
    <trip id="280" depart="280.00" from="557081355#5" to="526060122#0"/>
    <trip id="281" depart="281.00" from="242598855" to="-1364232975#7"/>
    <trip id="282" depart="282.00" from="688297714#13" to="-823420156"/>
    <trip id="283" depart="283.00" from="-24844112#1" to="735043818#1"/>
    <trip id="284" depart="284.00" from="735041697#3" to="165801846#1"/>
    <trip id="285" depart="285.00" from="243215793#12" to="1182170439"/>
    <trip id="286" depart="286.00" from="688297557#7" to="244280417#4"/>
    <trip id="287" depart="287.00" from="762778578#2" to="735041697#3"/>
    <trip id="288" depart="288.00" from="-835685075#2" to="520218960#7"/>
    <trip id="289" depart="289.00" from="258761300#3" to="255969486#3"/>
    <trip id="290" depart="290.00" from="-442359303" to="-1283638264"/>
    <trip id="291" depart="291.00" from="-513701193#0" to="23984063#1"/>
    <trip id="292" depart="292.00" from="258048023#2" to="735050497#3"/>
    <trip id="293" depart="293.00" from="513046090#2" to="-521865936#0"/>
    <trip id="294" depart="294.00" from="165600642#10" to="915349163#6"/>
    <trip id="295" depart="295.00" from="-344642873#7" to="-735037061#0"/>
    <trip id="296" depart="296.00" from="165600642#8" to="735282127"/>
    <trip id="297" depart="297.00" from="107829325#0" to="724875226#0"/>
    <trip id="298" depart="298.00" from="507845086#1" to="-1196004765#1"/>
    <trip id="299" depart="299.00" from="-244292559#3" to="587517165#0"/>
    <trip id="300" depart="300.00" from="262329420#24" to="-77617941#6"/>
    <trip id="301" depart="301.00" from="235846742#3" to="477114791#2"/>
    <trip id="302" depart="302.00" from="-723049185" to="762778578#2"/>
    <trip id="303" depart="303.00" from="244168492#1" to="-374348876#0"/>
    <trip id="304" depart="304.00" from="-841517769" to="-236958509#0"/>
    <trip id="305" depart="305.00" from="1348755703#8" to="235846743#7"/>
    <trip id="306" depart="306.00" from="241619863#9" to="620892802"/>
    <trip id="307" depart="307.00" from="1181247808" to="-243769167#4"/>
    <trip id="308" depart="308.00" from="24672017#7" to="983093050#11"/>
    <trip id="309" depart="309.00" from="-474772534#2" to="366420577#6"/>
    <trip id="310" depart="310.00" from="243769162#0" to="915349163#6"/>
    <trip id="311" depart="311.00" from="-51180025#0" to="966335511#0"/>
    <trip id="312" depart="312.00" from="1175582595#2" to="-103776396#2"/>
    <trip id="313" depart="313.00" from="500907947#6" to="161762335#0"/>
    <trip id="314" depart="314.00" from="735043818#1" to="762778204#12"/>
    <trip id="315" depart="315.00" from="696897739#3" to="735050502"/>
    <trip id="316" depart="316.00" from="230358843#6" to="112648634#3"/>
    <trip id="317" depart="317.00" from="165600642#2" to="734360467#10"/>
    <trip id="318" depart="318.00" from="-243215793#14" to="227893836"/>
    <trip id="319" depart="319.00" from="1364232975#1" to="51180030#1"/>
    <trip id="320" depart="320.00" from="868655590#1" to="1182170452"/>
    <trip id="321" depart="321.00" from="445671108#9" to="1086841542#11"/>
    <trip id="322" depart="322.00" from="607452622#0" to="1087660955#3"/>
    <trip id="323" depart="323.00" from="243215793#10" to="649748228#1"/>
    <trip id="324" depart="324.00" from="-628842641#2" to="120264224#3"/>
    <trip id="325" depart="325.00" from="698227104" to="544494225#1"/>
    <trip id="326" depart="326.00" from="823796096#0" to="724875230#0"/>
    <trip id="327" depart="327.00" from="236958515#4" to="474774135#1"/>
    <trip id="328" depart="328.00" from="366420577#1" to="165600642#10"/>
    <trip id="329" depart="329.00" from="503812669#7" to="735282120#0"/>
    <trip id="330" depart="330.00" from="227893834#9" to="498832728#5"/>
    <trip id="331" depart="331.00" from="107829289#4" to="121742129#1"/>
    <trip id="332" depart="332.00" from="-1148721827#2" to="-521162952#8"/>
    <trip id="333" depart="333.00" from="724874967#1" to="474772607#4"/>
    <trip id="334" depart="334.00" from="744540291" to="-734370427#3"/>
    <trip id="335" depart="335.00" from="734361221#2" to="500460268#2"/>
    <trip id="336" depart="336.00" from="520218960#11" to="-762778202#0"/>
    <trip id="337" depart="337.00" from="734363113#1" to="120264224#11"/>
    <trip id="338" depart="338.00" from="779802079#18" to="-546538329#11"/>
    <trip id="339" depart="339.00" from="734363797#7" to="107829270#0"/>
    <trip id="340" depart="340.00" from="180687137#0" to="-112648634#2"/>
    <trip id="341" depart="341.00" from="736834155#6" to="1116705481"/>
    <trip id="342" depart="342.00" from="736834155#6" to="23979536"/>
    <trip id="343" depart="343.00" from="477114792#0" to="-507094607#0"/>
    <trip id="344" depart="344.00" from="-103776366" to="255969482#0"/>
    <trip id="345" depart="345.00" from="28695630#3" to="236958514#4"/>
    <trip id="346" depart="346.00" from="-242609225#1" to="724875230#6"/>
    <trip id="347" depart="347.00" from="-24844112#4" to="736834155#5"/>
    <trip id="348" depart="348.00" from="230358842#3" to="-587517165#6"/>
    <trip id="349" depart="349.00" from="959660328#0" to="520218960#12"/>
    <trip id="350" depart="350.00" from="524184022" to="610163029#7"/>
    <trip id="351" depart="351.00" from="230361893#3" to="506032021#1"/>
    <trip id="352" depart="352.00" from="120264227#0" to="1348755703#5"/>
    <trip id="353" depart="353.00" from="-587517165#1" to="515604970#0"/>
    <trip id="354" depart="354.00" from="-236958508#2" to="-258048023#2"/>
    <trip id="355" depart="355.00" from="983093047#1" to="734363796#2"/>
    <trip id="356" depart="356.00" from="557081355#0" to="103775973#5"/>
    <trip id="357" depart="357.00" from="881850376#0" to="241619853#3"/>
    <trip id="358" depart="358.00" from="696345993#2" to="165600642#14"/>
    <trip id="359" depart="359.00" from="969707165#1" to="-506217799"/>
    <trip id="360" depart="360.00" from="610163029#4" to="-1161583208"/>
    <trip id="361" depart="361.00" from="724875226#4" to="503812669#12"/>
    <trip id="362" depart="362.00" from="649748228#0" to="-259014518#2"/>
    <trip id="363" depart="363.00" from="77617936#7" to="1116692283#1"/>
    <trip id="364" depart="364.00" from="-236958513#2" to="1182170453#3"/>
    <trip id="365" depart="365.00" from="448259698#4" to="501393472#0"/>
    <trip id="366" depart="366.00" from="-1161583208" to="607127147#1"/>
    <trip id="367" depart="367.00" from="734370431#0" to="259714718#1"/>
    <trip id="368" depart="368.00" from="-107829322#4" to="486563226#4"/>
    <trip id="369" depart="369.00" from="258656398#5" to="165625144"/>
    <trip id="370" depart="370.00" from="730188747#1" to="762778576"/>
    <trip id="371" depart="371.00" from="-734373256#3" to="-734360468#0"/>
    <trip id="372" depart="372.00" from="241619860#0" to="688296449#1"/>
    <trip id="373" depart="373.00" from="244292560#0" to="-107829262#3"/>
    <trip id="374" depart="374.00" from="557081355#9" to="915349163#4"/>
    <trip id="375" depart="375.00" from="735282131#1" to="735050501"/>
    <trip id="376" depart="376.00" from="-1116705502#0" to="-915349163#0"/>
    <trip id="377" depart="377.00" from="107829253#6" to="607449461"/>
    <trip id="378" depart="378.00" from="-261475633#1" to="1255523803"/>
    <trip id="379" depart="379.00" from="-661338021#1" to="-51180025#4"/>
    <trip id="380" depart="380.00" from="734361223#0" to="735043084#2"/>
    <trip id="381" depart="381.00" from="-51180025#10" to="-335710449"/>
    <trip id="382" depart="382.00" from="107829336#5" to="269115013#1"/>
    <trip id="383" depart="383.00" from="1283638274#0" to="258656396#2"/>
    <trip id="384" depart="384.00" from="910569073#0" to="107829335#1"/>
    <trip id="385" depart="385.00" from="514449819#2" to="77617941#6"/>
    <trip id="386" depart="386.00" from="-269114188#1" to="1087660620#6"/>
    <trip id="387" depart="387.00" from="610163050" to="241619862#6"/>
    <trip id="388" depart="388.00" from="-77617941#6" to="-258048023#0"/>
    <trip id="389" depart="389.00" from="688297712#8" to="103776413#0"/>
    <trip id="390" depart="390.00" from="501188659#1" to="24672587#2"/>
    <trip id="391" depart="391.00" from="697124708#7" to="-258761285#1"/>
    <trip id="392" depart="392.00" from="535921238#0" to="-77617941#5"/>
    <trip id="393" depart="393.00" from="734363798#2" to="-936631568#0"/>
    <trip id="394" depart="394.00" from="445860944#1" to="258269789#9"/>
    <trip id="395" depart="395.00" from="-269114339" to="258269789#9"/>
    <trip id="396" depart="396.00" from="269115013#7" to="835685075#6"/>
    <trip id="397" depart="397.00" from="374348876#2" to="-51180025#7"/>
    <trip id="398" depart="398.00" from="24672293#1" to="-1364232975#2"/>
    <trip id="399" depart="399.00" from="533825870#0" to="514449831#5"/>
    <trip id="400" depart="400.00" from="557081355#3" to="-107829325#1"/>
    <trip id="401" depart="401.00" from="-735043084#0" to="161762335#2"/>
    <trip id="402" depart="402.00" from="762778204#15" to="-107829322#1"/>
    <trip id="403" depart="403.00" from="481533342#0" to="1308866083#0"/>
    <trip id="404" depart="404.00" from="661338021#1" to="230409107#1"/>
    <trip id="405" depart="405.00" from="961517032" to="29048559#0"/>