<?xml version='1.0' encoding='UTF-8'?>
<routes><vType id="car" accel="1.0" decel="4.5" length="5" minGap="2.5" maxSpeed="25" guiShape="passenger" /><route id="route0" edges="1" /><vehicle id="veh0" type="car" route="route0" depart="189.71" /><vehicle id="veh1" type="car" route="route0" depart="451.12" /><vehicle id="veh2" type="car" route="route0" depart="43.53" /><vehicle id="veh3" type="car" route="route0" depart="274.97" /><vehicle id="veh4" type="car" route="route0" depart="599.07" /><vehicle id="veh5" type="car" route="route0" depart="597.66" /><vehicle id="veh6" type="car" route="route0" depart="43.96" /><vehicle id="veh7" type="car" route="route0" depart="127.89" /><vehicle id="veh8" type="car" route="route0" depart="159.12" /><vehicle id="veh9" type="car" route="route0" depart="559.96" /><vehicle id="veh10" type="car" route="route0" depart="528.52" /><vehicle id="veh11" type="car" route="route0" depart="527.56" /><vehicle id="veh12" type="car" route="route0" depart="221.72" /><vehicle id="veh13" type="car" route="route0" depart="94.65" /><vehicle id="veh14" type="car" route="route0" depart="500.25" /><vehicle id="veh15" type="car" route="route0" depart="422.12" /><vehicle id="veh16" type="car" route="route0" depart="367.01" /><vehicle id="veh17" type="car" route="route0" depart="592.34" /><vehicle id="veh18" type="car" route="route0" depart="392.39" /><vehicle id="veh19" type="car" route="route0" depart="4.69" /><vehicle id="veh20" type="car" route="route0" depart="490.26" /><vehicle id="veh21" type="car" route="route0" depart="179.63" /><vehicle id="veh22" type="car" route="route0" depart="398.03" /><vehicle id="veh23" type="car" route="route0" depart="563.36" /><vehicle id="veh24" type="car" route="route0" depart="80.57" /><vehicle id="veh25" type="car" route="route0" depart="69.26" /><vehicle id="veh26" type="car" route="route0" depart="64.22" /><vehicle id="veh27" type="car" route="route0" depart="331.93" /><vehicle id="veh28" type="car" route="route0" depart="163.41" /><vehicle id="veh29" type="car" route="route0" depart="362.9" /><vehicle id="veh30" type="car" route="route0" depart="430.57" /><vehicle id="veh31" type="car" route="route0" depart="122.16" /><vehicle id="veh32" type="car" route="route0" depart="380.54" /><vehicle id="veh33" type="car" route="route0" depart="158.39" /><vehicle id="veh34" type="car" route="route0" depart="293.12" /><vehicle id="veh35" type="car" route="route0" depart="543.2" /><vehicle id="veh36" type="car" route="route0" depart="507.66" /><vehicle id="veh37" type="car" route="route0" depart="55.38" /><vehicle id="veh38" type="car" route="route0" depart="254.15" /><vehicle id="veh39" type="car" route="route0" depart="166.01" /><vehicle id="veh40" type="car" route="route0" depart="2.13" /><vehicle id="veh41" type="car" route="route0" depart="462.67" /><vehicle id="veh42" type="car" route="route0" depart="382.27" /><vehicle id="veh43" type="car" route="route0" depart="157.17" /><vehicle id="veh44" type="car" route="route0" depart="444.74" /><vehicle id="veh45" type="car" route="route0" depart="331.01" /><vehicle id="veh46" type="car" route="route0" depart="256.61" /><vehicle id="veh47" type="car" route="route0" depart="5.8" /><vehicle id="veh48" type="car" route="route0" depart="45.15" /><vehicle id="veh49" type="car" route="route0" depart="529.86" /><vehicle id="veh50" type="car" route="route0" depart="542.36" /><vehicle id="veh51" type="car" route="route0" depart="327.35" /><vehicle id="veh52" type="car" route="route0" depart="500.76" /><vehicle id="veh53" type="car" route="route0" depart="349.51" /><vehicle id="veh54" type="car" route="route0" depart="88.86" /><vehicle id="veh55" type="car" route="route0" depart="76.47" /><vehicle id="veh56" type="car" route="route0" depart="184.96" /><vehicle id="veh57" type="car" route="route0" depart="539.39" /><vehicle id="veh58" type="car" route="route0" depart="477.67" /><vehicle id="veh59" type="car" route="route0" depart="516.42" /><vehicle id="veh60" type="car" route="route0" depart="539.35" /><vehicle id="veh61" type="car" route="route0" depart="126.05" /><vehicle id="veh62" type="car" route="route0" depart="149.72" /><vehicle id="veh63" type="car" route="route0" depart="61.68" /><vehicle id="veh64" type="car" route="route0" depart="468.07" /><vehicle id="veh65" type="car" route="route0" depart="530.48" /><vehicle id="veh66" type="car" route="route0" depart="243.83" /><vehicle id="veh67" type="car" route="route0" depart="372.4" /><vehicle id="veh68" type="car" route="route0" depart="92.73" /><vehicle id="veh69" type="car" route="route0" depart="557.93" /><vehicle id="veh70" type="car" route="route0" depart="518.76" /><vehicle id="veh71" type="car" route="route0" depart="585.72" /><vehicle id="veh72" type="car" route="route0" depart="486.46" /><vehicle id="veh73" type="car" route="route0" depart="528.85" /><vehicle id="veh74" type="car" route="route0" depart="14.87" /><vehicle id="veh75" type="car" route="route0" depart="441.94" /><vehicle id="veh76" type="car" route="route0" depart="199.31" /><vehicle id="veh77" type="car" route="route0" depart="558.49" /><vehicle id="veh78" type="car" route="route0" depart="481.34" /><vehicle id="veh79" type="car" route="route0" depart="518.44" /><vehicle id="veh80" type="car" route="route0" depart="486.45" /><vehicle id="veh81" type="car" route="route0" depart="160.08" /><vehicle id="veh82" type="car" route="route0" depart="472.42" /><vehicle id="veh83" type="car" route="route0" depart="64.86" /><vehicle id="veh84" type="car" route="route0" depart="523.3" /><vehicle id="veh85" type="car" route="route0" depart="515.16" /><vehicle id="veh86" type="car" route="route0" depart="133.46" /><vehicle id="veh87" type="car" route="route0" depart="489.95" /><vehicle id="veh88" type="car" route="route0" depart="276.18" /><vehicle id="veh89" type="car" route="route0" depart="183.11" /><vehicle id="veh90" type="car" route="route0" depart="477.21" /><vehicle id="veh91" type="car" route="route0" depart="136.56" /><vehicle id="veh92" type="car" route="route0" depart="14.2" /><vehicle id="veh93" type="car" route="route0" depart="115.88" /><vehicle id="veh94" type="car" route="route0" depart="196.96" /><vehicle id="veh95" type="car" route="route0" depart="518.61" /><vehicle id="veh96" type="car" route="route0" depart="580.13" /><vehicle id="veh97" type="car" route="route0" depart="167.47" /><vehicle id="veh98" type="car" route="route0" depart="384.89" /><vehicle id="veh99" type="car" route="route0" depart="239.81" /><vehicle id="veh100" type="car" route="route0" depart="588.69" /><vehicle id="veh101" type="car" route="route0" depart="321.73" /><vehicle id="veh102" type="car" route="route0" depart="563.54" /><vehicle id="veh103" type="car" route="route0" depart="69.21" /><vehicle id="veh104" type="car" route="route0" depart="582.24" /><vehicle id="veh105" type="car" route="route0" depart="107.14" /><vehicle id="veh106" type="car" route="route0" depart="577.52" /><vehicle id="veh107" type="car" route="route0" depart="159.28" /><vehicle id="veh108" type="car" route="route0" depart="65.04" /><vehicle id="veh109" type="car" route="route0" depart="260.74" /><vehicle id="veh110" type="car" route="route0" depart="437.13" /><vehicle id="veh111" type="car" route="route0" depart="188.21" /><vehicle id="veh112" type="car" route="route0" depart="363.73" /><vehicle id="veh113" type="car" route="route0" depart="306.85" /><vehicle id="veh114" type="car" route="route0" depart="231.12" /><vehicle id="veh115" type="car" route="route0" depart="345.95" /><vehicle id="veh116" type="car" route="route0" depart="152.83" /><vehicle id="veh117" type="car" route="route0" depart="425.27" /><vehicle id="veh118" type="car" route="route0" depart="1.01" /><vehicle id="veh119" type="car" route="route0" depart="555.35" /><vehicle id="veh120" type="car" route="route0" depart="323.07" /><vehicle id="veh121" type="car" route="route0" depart="431.66" /><vehicle id="veh122" type="car" route="route0" depart="445.17" /><vehicle id="veh123" type="car" route="route0" depart="402.38" /><vehicle id="veh124" type="car" route="route0" depart="218.53" /><vehicle id="veh125" type="car" route="route0" depart="41.98" /><vehicle id="veh126" type="car" route="route0" depart="398.54" /><vehicle id="veh127" type="car" route="route0" depart="198.12" /><vehicle id="veh128" type="car" route="route0" depart="188.35" /><vehicle id="veh129" type="car" route="route0" depart="508.81" /><vehicle id="veh130" type="car" route="route0" depart="431.85" /><vehicle id="veh131" type="car" route="route0" depart="180.19" /><vehicle id="veh132" type="car" route="route0" depart="185.57" /><vehicle id="veh133" type="car" route="route0" depart="245.04" /><vehicle id="veh134" type="car" route="route0" depart="241.44" /><vehicle id="veh135" type="car" route="route0" depart="177.39" /><vehicle id="veh136" type="car" route="route0" depart="76.37" /><vehicle id="veh137" type="car" route="route0" depart="252.27" /><vehicle id="veh138" type="car" route="route0" depart="564.22" /><vehicle id="veh139" type="car" route="route0" depart="406.39" /><vehicle id="veh140" type="car" route="route0" depart="541.68" /><vehicle id="veh141" type="car" route="route0" depart="369.31" /><vehicle id="veh142" type="car" route="route0" depart="180.57" /><vehicle id="veh143" type="car" route="route0" depart="328.76" /><vehicle id="veh144" type="car" route="route0" depart="0.24" /><vehicle id="veh145" type="car" route="route0" depart="172.15" /><vehicle id="veh146" type="car" route="route0" depart="257.93" /><vehicle id="veh147" type="car" route="route0" depart="347.99" /><vehicle id="veh148" type="car" route="route0" depart="392.82" /><vehicle id="veh149" type="car" route="route0" depart="278.99" /><vehicle id="veh150" type="car" route="route0" depart="265.3" /><vehicle id="veh151" type="car" route="route0" depart="128.22" /><vehicle id="veh152" type="car" route="route0" depart="283.91" /><vehicle id="veh153" type="car" route="route0" depart="540.71" /><vehicle id="veh154" type="car" route="route0" depart="477.61" /><vehicle id="veh155" type="car" route="route0" depart="101.81" /><vehicle id="veh156" type="car" route="route0" depart="50.88" /><vehicle id="veh157" type="car" route="route0" depart="309.27" /><vehicle id="veh158" type="car" route="route0" depart="379.76" /><vehicle id="veh159" type="car" route="route0" depart="201.11" /><vehicle id="veh160" type="car" route="route0" depart="491.05" /><vehicle id="veh161" type="car" route="route0" depart="450.68" /><vehicle id="veh162" type="car" route="route0" depart="403.68" /><vehicle id="veh163" type="car" route="route0" depart="134.78" /><vehicle id="veh164" type="car" route="route0" depart="119.48" /><vehicle id="veh165" type="car" route="route0" depart="14.66" /><vehicle id="veh166" type="car" route="route0" depart="146.91" /><vehicle id="veh167" type="car" route="route0" depart="285.08" /><vehicle id="veh168" type="car" route="route0" depart="509.84" /><vehicle id="veh169" type="car" route="route0" depart="43.7" /><vehicle id="veh170" type="car" route="route0" depart="248.66" /><vehicle id="veh171" type="car" route="route0" depart="377.86" /><vehicle id="veh172" type="car" route="route0" depart="116.66" /><vehicle id="veh173" type="car" route="route0" depart="417.81" /><vehicle id="veh174" type="car" route="route0" depart="296.63" /><vehicle id="veh175" type="car" route="route0" depart="146.39" /><vehicle id="veh176" type="car" route="route0" depart="393.63" /><vehicle id="veh177" type="car" route="route0" depart="3.33" /><vehicle id="veh178" type="car" route="route0" depart="450.58" /><vehicle id="veh179" type="car" route="route0" depart="462.03" /><vehicle id="veh180" type="car" route="route0" depart="63.95" /><vehicle id="veh181" type="car" route="route0" depart="255.09" /><vehicle id="veh182" type="car" route="route0" depart="105.53" /><vehicle id="veh183" type="car" route="route0" depart="574.78" /><vehicle id="veh184" type="car" route="route0" depart="310.77" /><vehicle id="veh185" type="car" route="route0" depart="30.13" /><vehicle id="veh186" type="car" route="route0" depart="149.52" /><vehicle id="veh187" type="car" route="route0" depart="509.0" /><vehicle id="veh188" type="car" route="route0" depart="273.88" /><vehicle id="veh189" type="car" route="route0" depart="480.85" /><vehicle id="veh190" type="car" route="route0" depart="400.55" /><vehicle id="veh191" type="car" route="route0" depart="592.74" /><vehicle id="veh192" type="car" route="route0" depart="357.27" /><vehicle id="veh193" type="car" route="route0" depart="570.02" /><vehicle id="veh194" type="car" route="route0" depart="534.86" /><vehicle id="veh195" type="car" route="route0" depart="367.59" /><vehicle id="veh196" type="car" route="route0" depart="431.56" /><vehicle id="veh197" type="car" route="route0" depart="302.87" /><vehicle id="veh198" type="car" route="route0" depart="498.34" /><vehicle id="veh199" type="car" route="route0" depart="328.72" /><vehicle id="veh200" type="car" route="route0" depart="538.32" /><vehicle id="veh201" type="car" route="route0" depart="446.19" /><vehicle id="veh202" type="car" route="route0" depart="284.8" /><vehicle id="veh203" type="car" route="route0" depart="155.51" /><vehicle id="veh204" type="car" route="route0" depart="148.34" /><vehicle id="veh205" type="car" route="route0" depart="382.6" /><vehicle id="veh206" type="car" route="route0" depart="459.49" /><vehicle id="veh207" type="car" route="route0" depart="312.78" /><vehicle id="veh208" type="car" route="route0" depart="376.05" /><vehicle id="veh209" type="car" route="route0" depart="164.76" /><vehicle id="veh210" type="car" route="route0" depart="46.49" /><vehicle id="veh211" type="car" route="route0" depart="171.44" /><vehicle id="veh212" type="car" route="route0" depart="163.03" /><vehicle id="veh213" type="car" route="route0" depart="191.83" /><vehicle id="veh214" type="car" route="route0" depart="324.09" /><vehicle id="veh215" type="car" route="route0" depart="83.02" /><vehicle id="veh216" type="car" route="route0" depart="138.76" /><vehicle id="veh217" type="car" route="route0" depart="416.37" /><vehicle id="veh218" type="car" route="route0" depart="423.85" /><vehicle id="veh219" type="car" route="route0" depart="38.54" /><vehicle id="veh220" type="car" route="route0" depart="244.56" /><vehicle id="veh221" type="car" route="route0" depart="325.57" /><vehicle id="veh222" type="car" route="route0" depart="249.46" /><vehicle id="veh223" type="car" route="route0" depart="124.1" /><vehicle id="veh224" type="car" route="route0" depart="252.09" /><vehicle id="veh225" type="car" route="route0" depart="542.9" /><vehicle id="veh226" type="car" route="route0" depart="350.45" /><vehicle id="veh227" type="car" route="route0" depart="417.31" /><vehicle id="veh228" type="car" route="route0" depart="514.04" /><vehicle id="veh229" type="car" route="route0" depart="459.36" /><vehicle id="veh230" type="car" route="route0" depart="228.23" /><vehicle id="veh231" type="car" route="route0" depart="3.54" /><vehicle id="veh232" type="car" route="route0" depart="211.06" /><vehicle id="veh233" type="car" route="route0" depart="452.09" /><vehicle id="veh234" type="car" route="route0" depart="512.07" /><vehicle id="veh235" type="car" route="route0" depart="572.06" /><vehicle id="veh236" type="car" route="route0" depart="251.41" /><vehicle id="veh237" type="car" route="route0" depart="448.51" /><vehicle id="veh238" type="car" route="route0" depart="327.68" /><vehicle id="veh239" type="car" route="route0" depart="361.95" /><vehicle id="veh240" type="car" route="route0" depart="132.32" /><vehicle id="veh241" type="car" route="route0" depart="131.65" /><vehicle id="veh242" type="car" route="route0" depart="261.5" /><vehicle id="veh243" type="car" route="route0" depart="17.41" /><vehicle id="veh244" type="car" route="route0" depart="201.68" /><vehicle id="veh245" type="car" route="route0" depart="407.49" /><vehicle id="veh246" type="car" route="route0" depart="242.59" /><vehicle id="veh247" type="car" route="route0" depart="99.03" /><vehicle id="veh248" type="car" route="route0" depart="280.43" /><vehicle id="veh249" type="car" route="route0" depart="76.58" /><vehicle id="veh250" type="car" route="route0" depart="373.35" /><vehicle id="veh251" type="car" route="route0" depart="16.18" /><vehicle id="veh252" type="car" route="route0" depart="236.41" /><vehicle id="veh253" type="car" route="route0" depart="338.64" /><vehicle id="veh254" type="car" route="route0" depart="16.26" /><vehicle id="veh255" type="car" route="route0" depart="385.65" /><vehicle id="veh256" type="car" route="route0" depart="81.42" /><vehicle id="veh257" type="car" route="route0" depart="277.02" /><vehicle id="veh258" type="car" route="route0" depart="30.17" /><vehicle id="veh259" type="car" route="route0" depart="227.46" /><vehicle id="veh260" type="car" route="route0" depart="127.0" /><vehicle id="veh261" type="car" route="route0" depart="196.11" /><vehicle id="veh262" type="car" route="route0" depart="456.74" /><vehicle id="veh263" type="car" route="route0" depart="227.48" /><vehicle id="veh264" type="car" route="route0" depart="451.21" /><vehicle id="veh265" type="car" route="route0" depart="499.15" /><vehicle id="veh266" type="car" route="route0" depart="151.36" /><vehicle id="veh267" type="car" route="route0" depart="49.14" /><vehicle id="veh268" type="car" route="route0" depart="11.63" /><vehicle id="veh269" type="car" route="route0" depart="323.65" /><vehicle id="veh270" type="car" route="route0" depart="599.94" /><vehicle id="veh271" type="car" route="route0" depart="209.98" /><vehicle id="veh272" type="car" route="route0" depart="390.09" /><vehicle id="veh273" type="car" route="route0" depart="468.74" /><vehicle id="veh274" type="car" route="route0" depart="391.05" /><vehicle id="veh275" type="car" route="route0" depart="452.54" /><vehicle id="veh276" type="car" route="route0" depart="569.77" /><vehicle id="veh277" type="car" route="route0" depart="119.62" /><vehicle id="veh278" type="car" route="route0" depart="12.23" /><vehicle id="veh279" type="car" route="route0" depart="91.43" /><vehicle id="veh280" type="car" route="route0" depart="75.73" /><vehicle id="veh281" type="car" route="route0" depart="401.68" /><vehicle id="veh282" type="car" route="route0" depart="338.38" /><vehicle id="veh283" type="car" route="route0" depart="130.78" /><vehicle id="veh284" type="car" route="route0" depart="419.68" /><vehicle id="veh285" type="car" route="route0" depart="460.14" /><vehicle id="veh286" type="car" route="route0" depart="100.67" /><vehicle id="veh287" type="car" route="route0" depart="364.35" /><vehicle id="veh288" type="car" route="route0" depart="448.76" /><vehicle id="veh289" type="car" route="route0" depart="68.72" /><vehicle id="veh290" type="car" route="route0" depart="491.58" /><vehicle id="veh291" type="car" route="route0" depart="578.83" /><vehicle id="veh292" type="car" route="route0" depart="64.86" /><vehicle id="veh293" type="car" route="route0" depart="15.41" /><vehicle id="veh294" type="car" route="route0" depart="187.17" /><vehicle id="veh295" type="car" route="route0" depart="406.41" /><vehicle id="veh296" type="car" route="route0" depart="574.9" /><vehicle id="veh297" type="car" route="route0" depart="237.99" /><vehicle id="veh298" type="car" route="route0" depart="429.01" /><vehicle id="veh299" type="car" route="route0" depart="45.6" /><vehicle id="veh300" type="car" route="route0" depart="414.37" /><vehicle id="veh301" type="car" route="route0" depart="376.35" /><vehicle id="veh302" type="car" route="route0" depart="61.14" /><vehicle id="veh303" type="car" route="route0" depart="463.49" /><vehicle id="veh304" type="car" route="route0" depart="510.18" /><vehicle id="veh305" type="car" route="route0" depart="360.25" /><vehicle id="veh306" type="car" route="route0" depart="72.63" /><vehicle id="veh307" type="car" route="route0" depart="590.31" /><vehicle id="veh308" type="car" route="route0" depart="469.58" /><vehicle id="veh309" type="car" route="route0" depart="208.32" /><vehicle id="veh310" type="car" route="route0" depart="257.03" /><vehicle id="veh311" type="car" route="route0" depart="222.34" /><vehicle id="veh312" type="car" route="route0" depart="303.58" /><vehicle id="veh313" type="car" route="route0" depart="204.74" /><vehicle id="veh314" type="car" route="route0" depart="509.75" /><vehicle id="veh315" type="car" route="route0" depart="493.4" /><vehicle id="veh316" type="car" route="route0" depart="63.32" /><vehicle id="veh317" type="car" route="route0" depart="576.47" /><vehicle id="veh318" type="car" route="route0" depart="381.35" /><vehicle id="veh319" type="car" route="route0" depart="497.22" /><vehicle id="veh320" type="car" route="route0" depart="424.39" /><vehicle id="veh321" type="car" route="route0" depart="261.29" /><vehicle id="veh322" type="car" route="route0" depart="440.28" /><vehicle id="veh323" type="car" route="route0" depart="579.28" /><vehicle id="veh324" type="car" route="route0" depart="162.05" /><vehicle id="veh325" type="car" route="route0" depart="484.92" /><vehicle id="veh326" type="car" route="route0" depart="322.9" /><vehicle id="veh327" type="car" route="route0" depart="290.1" /><vehicle id="veh328" type="car" route="route0" depart="261.34" /><vehicle id="veh329" type="car" route="route0" depart="438.62" /><vehicle id="veh330" type="car" route="route0" depart="161.04" /><vehicle id="veh331" type="car" route="route0" depart="511.03" /><vehicle id="veh332" type="car" route="route0" depart="498.44" /><vehicle id="veh333" type="car" route="route0" depart="52.0" /><vehicle id="veh334" type="car" route="route0" depart="528.98" /><vehicle id="veh335" type="car" route="route0" depart="146.32" /><vehicle id="veh336" type="car" route="route0" depart="278.83" /><vehicle id="veh337" type="car" route="route0" depart="366.2" /><vehicle id="veh338" type="car" route="route0" depart="227.39" /><vehicle id="veh339" type="car" route="route0" depart="17.22" /><vehicle id="veh340" type="car" route="route0" depart="510.57" /><vehicle id="veh341" type="car" route="route0" depart="109.1" /><vehicle id="veh342" type="car" route="route0" depart="127.27" /><vehicle id="veh343" type="car" route="route0" depart="478.7" /><vehicle id="veh344" type="car" route="route0" depart="204.2" /><vehicle id="veh345" type="car" route="route0" depart="528.19" /><vehicle id="veh346" type="car" route="route0" depart="420.71" /><vehicle id="veh347" type="car" route="route0" depart="165.76" /><vehicle id="veh348" type="car" route="route0" depart="6.09" /><vehicle id="veh349" type="car" route="route0" depart="568.84" /><vehicle id="veh350" type="car" route="route0" depart="51.37" /><vehicle id="veh351" type="car" route="route0" depart="432.04" /><vehicle id="veh352" type="car" route="route0" depart="293.15" /><vehicle id="veh353" type="car" route="route0" depart="454.9" /><vehicle id="veh354" type="car" route="route0" depart="414.37" /><vehicle id="veh355" type="car" route="route0" depart="387.54" /><vehicle id="veh356" type="car" route="route0" depart="294.49" /><vehicle id="veh357" type="car" route="route0" depart="475.76" /><vehicle id="veh358" type="car" route="route0" depart="55.83" /><vehicle id="veh359" type="car" route="route0" depart="132.96" /><vehicle id="veh360" type="car" route="route0" depart="415.07" /><vehicle id="veh361" type="car" route="route0" depart="183.72" /><vehicle id="veh362" type="car" route="route0" depart="348.93" /><vehicle id="veh363" type="car" route="route0" depart="283.96" /><vehicle id="veh364" type="car" route="route0" depart="318.55" /><vehicle id="veh365" type="car" route="route0" depart="255.3" /><vehicle id="veh366" type="car" route="route0" depart="447.56" /><vehicle id="veh367" type="car" route="route0" depart="198.47" /><vehicle id="veh368" type="car" route="route0" depart="421.71" /><vehicle id="veh369" type="car" route="route0" depart="162.55" /><vehicle id="veh370" type="car" route="route0" depart="150.84" /><vehicle id="veh371" type="car" route="route0" depart="72.39" /><vehicle id="veh372" type="car" route="route0" depart="115.55" /><vehicle id="veh373" type="car" route="route0" depart="71.73" /><vehicle id="veh374" type="car" route="route0" depart="321.52" /><vehicle id="veh375" type="car" route="route0" depart="457.31" /><vehicle id="veh376" type="car" route="route0" depart="111.09" /><vehicle id="veh377" type="car" route="route0" depart="129.83" /><vehicle id="veh378" type="car" route="route0" depart="290.52" /><vehicle id="veh379" type="car" route="route0" depart="434.75" /><vehicle id="veh380" type="car" route="route0" depart="585.96" /><vehicle id="veh381" type="car" route="route0" depart="314.78" /><vehicle id="veh382" type="car" route="route0" depart="169.8" /><vehicle id="veh383" type="car" route="route0" depart="60.32" /><vehicle id="veh384" type="car" route="route0" depart="116.47" /><vehicle id="veh385" type="car" route="route0" depart="136.49" /><vehicle id="veh386" type="car" route="route0" depart="107.66" /><vehicle id="veh387" type="car" route="route0" depart="8.49" /><vehicle id="veh388" type="car" route="route0" depart="320.48" /><vehicle id="veh389" type="car" route="route0" depart="164.59" /><vehicle id="veh390" type="car" route="route0" depart="584.58" /><vehicle id="veh391" type="car" route="route0" depart="332.02" /><vehicle id="veh392" type="car" route="route0" depart="418.45" /><vehicle id="veh393" type="car" route="route0" depart="75.77" /><vehicle id="veh394" type="car" route="route0" depart="521.08" /><vehicle id="veh395" type="car" route="route0" depart="294.53" /><vehicle id="veh396" type="car" route="route0" depart="523.63" /><vehicle id="veh397" type="car" route="route0" depart="344.44" /><vehicle id="veh398" type="car" route="route0" depart="281.64" /><vehicle id="veh399" type="car" route="route0" depart="264.28" /><vehicle id="veh400" type="car" route="route0" depart="110.62" /><vehicle id="veh401" type="car" route="route0" depart="30.83" /><vehicle id="veh402" type="car" route="route0" depart="564.64" /><vehicle id="veh403" type="car" route="route0" depart="286.64" /><vehicle id="veh404" type="car" route="route0" depart="493.27" /><vehicle id="veh405" type="car" route="route0" depart="240.42" /><vehicle id="veh406" type="car" route="route0" depart="44.45" /><vehicle id="veh407" type="car" route="route0" depart="377.67" /><vehicle id="veh408" type="car" route="route0" depart="32.17" /><vehicle id="veh409" type="car" route="route0" depart="89.52" /><vehicle id="veh410" type="car" route="route0" depart="337.7" /><vehicle id="veh411" type="car" route="route0" depart="182.3" /><vehicle id="veh412" type="car" route="route0" depart="596.35" /><vehicle id="veh413" type="car" route="route0" depart="71.07" /><vehicle id="veh414" type="car" route="route0" depart="458.67" /><vehicle id="veh415" type="car" route="route0" depart="363.79" /><vehicle id="veh416" type="car" route="route0" depart="474.44" /><vehicle id="veh417" type="car" route="route0" depart="135.41" /><vehicle id="veh418" type="car" route="route0" depart="313.54" /><vehicle id="veh419" type="car" route="route0" depart="270.31" /><vehicle id="veh420" type="car" route="route0" depart="265.63" /><vehicle id="veh421" type="car" route="route0" depart="516.1" /><vehicle id="veh422" type="car" route="route0" depart="594.02" /><vehicle id="veh423" type="car" route="route0" depart="183.23" /><vehicle id="veh424" type="car" route="route0" depart="372.62" /><vehicle id="veh425" type="car" route="route0" depart="365.78" /><vehicle id="veh426" type="car" route="route0" depart="444.05" /><vehicle id="veh427" type="car" route="route0" depart="568.55" /><vehicle id="veh428" type="car" route="route0" depart="124.67" /><vehicle id="veh429" type="car" route="route0" depart="126.62" /><vehicle id="veh430" type="car" route="route0" depart="396.26" /><vehicle id="veh431" type="car" route="route0" depart="94.23" /><vehicle id="veh432" type="car" route="route0" depart="104.29" /><vehicle id="veh433" type="car" route="route0" depart="45.04" /><vehicle id="veh434" type="car" route="route0" depart="1.61" /><vehicle id="veh435" type="car" route="route0" depart="270.3" /><vehicle id="veh436" type="car" route="route0" depart="356.29" /><vehicle id="veh437" type="car" route="route0" depart="174.76" /><vehicle id="veh438" type="car" route="route0" depart="138.89" /><vehicle id="veh439" type="car" route="route0" depart="424.17" /><vehicle id="veh440" type="car" route="route0" depart="421.79" /><vehicle id="veh441" type="car" route="route0" depart="272.42" /><vehicle id="veh442" type="car" route="route0" depart="412.43" /><vehicle id="veh443" type="car" route="route0" depart="554.35" /><vehicle id="veh444" type="car" route="route0" depart="472.7" /><vehicle id="veh445" type="car" route="route0" depart="375.03" /><vehicle id="veh446" type="car" route="route0" depart="396.71" /><vehicle id="veh447" type="car" route="route0" depart="560.2" /><vehicle id="veh448" type="car" route="route0" depart="255.08" /><vehicle id="veh449" type="car" route="route0" depart="326.74" /><vehicle id="veh450" type="car" route="route0" depart="388.58" /><vehicle id="veh451" type="car" route="route0" depart="545.05" /><vehicle id="veh452" type="car" route="route0" depart="495.98" /><vehicle id="veh453" type="car" route="route0" depart="42.85" /><vehicle id="veh454" type="car" route="route0" depart="99.55" /><vehicle id="veh455" type="car" route="route0" depart="184.57" /><vehicle id="veh456" type="car" route="route0" depart="449.37" /><vehicle id="veh457" type="car" route="route0" depart="341.52" /><vehicle id="veh458" type="car" route="route0" depart="173.17" /><vehicle id="veh459" type="car" route="route0" depart="74.61" /><vehicle id="veh460" type="car" route="route0" depart="413.21" /><vehicle id="veh461" type="car" route="route0" depart="419.84" /><vehicle id="veh462