<?xml version='1.0' encoding='UTF-8'?>
<routes><vType id="car" accel="1.0" decel="4.5" length="5" minGap="2.5" maxSpeed="25" guiShape="passenger" /><route id="route0" edges="1" /><vehicle id="veh0" type="car" route="route0" depart="383.66" /><vehicle id="veh1" type="car" route="route0" depart="15.01" /><vehicle id="veh2" type="car" route="route0" depart="165.02" /><vehicle id="veh3" type="car" route="route0" depart="133.93" /><vehicle id="veh4" type="car" route="route0" depart="441.88" /><vehicle id="veh5" type="car" route="route0" depart="406.02" /><vehicle id="veh6" type="car" route="route0" depart="535.31" /><vehicle id="veh7" type="car" route="route0" depart="52.16" /><vehicle id="veh8" type="car" route="route0" depart="253.15" /><vehicle id="veh9" type="car" route="route0" depart="17.88" /><vehicle id="veh10" type="car" route="route0" depart="131.18" /><vehicle id="veh11" type="car" route="route0" depart="303.21" /><vehicle id="veh12" type="car" route="route0" depart="15.92" /><vehicle id="veh13" type="car" route="route0" depart="119.3" /><vehicle id="veh14" type="car" route="route0" depart="389.93" /><vehicle id="veh15" type="car" route="route0" depart="326.96" /><vehicle id="veh16" type="car" route="route0" depart="132.26" /><vehicle id="veh17" type="car" route="route0" depart="353.56" /><vehicle id="veh18" type="car" route="route0" depart="485.66" /><vehicle id="veh19" type="car" route="route0" depart="3.9" /><vehicle id="veh20" type="car" route="route0" depart="483.49" /><vehicle id="veh21" type="car" route="route0" depart="418.88" /><vehicle id="veh22" type="car" route="route0" depart="204.15" /><vehicle id="veh23" type="car" route="route0" depart="93.29" /><vehicle id="veh24" type="car" route="route0" depart="574.33" /><vehicle id="veh25" type="car" route="route0" depart="201.96" /><vehicle id="veh26" type="car" route="route0" depart="55.65" /><vehicle id="veh27" type="car" route="route0" depart="58.03" /><vehicle id="veh28" type="car" route="route0" depart="508.5" /><vehicle id="veh29" type="car" route="route0" depart="362.24" /><vehicle id="veh30" type="car" route="route0" depart="484.28" /><vehicle id="veh31" type="car" route="route0" depart="437.84" /><vehicle id="veh32" type="car" route="route0" depart="321.74" /><vehicle id="veh33" type="car" route="route0" depart="583.87" /><vehicle id="veh34" type="car" route="route0" depart="227.12" /><vehicle id="veh35" type="car" route="route0" depart="331.22" /><vehicle id="veh36" type="car" route="route0" depart="497.64" /><vehicle id="veh37" type="car" route="route0" depart="371.11" /><vehicle id="veh38" type="car" route="route0" depart="517.02" /><vehicle id="veh39" type="car" route="route0" depart="346.41" /><vehicle id="veh40" type="car" route="route0" depart="422.74" /><vehicle id="veh41" type="car" route="route0" depart="27.49" /><vehicle id="veh42" type="car" route="route0" depart="136.74" /><vehicle id="veh43" type="car" route="route0" depart="173.63" /><vehicle id="veh44" type="car" route="route0" depart="47.88" /><vehicle id="veh45" type="car" route="route0" depart="139.67" /><vehicle id="veh46" type="car" route="route0" depart="60.6" /><vehicle id="veh47" type="car" route="route0" depart="166.78" /><vehicle id="veh48" type="car" route="route0" depart="381.41" /><vehicle id="veh49" type="car" route="route0" depart="218.9" /></routes>