<?xml version='1.0' encoding='UTF-8'?>
<routes><vType id="car" accel="1.0" decel="4.5" length="5" minGap="2.5" maxSpeed="25" guiShape="passenger" /><route id="route0" edges="1" /><vehicle id="veh0" type="car" route="route0" depart="222.11" /><vehicle id="veh1" type="car" route="route0" depart="125.7" /><vehicle id="veh2" type="car" route="route0" depart="160.19" /><vehicle id="veh3" type="car" route="route0" depart="561.99" /><vehicle id="veh4" type="car" route="route0" depart="388.82" /><vehicle id="veh5" type="car" route="route0" depart="365.48" /><vehicle id="veh6" type="car" route="route0" depart="102.68" /><vehicle id="veh7" type="car" route="route0" depart="437.48" /><vehicle id="veh8" type="car" route="route0" depart="98.04" /><vehicle id="veh9" type="car" route="route0" depart="227.67" /><vehicle id="veh10" type="car" route="route0" depart="593.71" /><vehicle id="veh11" type="car" route="route0" depart="384.0" /><vehicle id="veh12" type="car" route="route0" depart="334.17" /><vehicle id="veh13" type="car" route="route0" depart="410.77" /><vehicle id="veh14" type="car" route="route0" depart="505.71" /><vehicle id="veh15" type="car" route="route0" depart="465.6" /><vehicle id="veh16" type="car" route="route0" depart="137.43" /><vehicle id="veh17" type="car" route="route0" depart="19.26" /><vehicle id="veh18" type="car" route="route0" depart="189.27" /><vehicle id="veh19" type="car" route="route0" depart="160.64" /><vehicle id="veh20" type="car" route="route0" depart="126.59" /><vehicle id="veh21" type="car" route="route0" depart="565.75" /><vehicle id="veh22" type="car" route="route0" depart="525.82" /><vehicle id="veh23" type="car" route="route0" depart="188.81" /><vehicle id="veh24" type="car" route="route0" depart="393.26" /><vehicle id="veh25" type="car" route="route0" depart="237.38" /><vehicle id="veh26" type="car" route="route0" depart="548.73" /><vehicle id="veh27" type="car" route="route0" depart="275.31" /><vehicle id="veh28" type="car" route="route0" depart="158.93" /><vehicle id="veh29" type="car" route="route0" depart="147.98" /><vehicle id="veh30" type="car" route="route0" depart="336.82" /><vehicle id="veh31" type="car" route="route0" depart="157.64" /><vehicle id="veh32" type="car" route="route0" depart="350.75" /><vehicle id="veh33" type="car" route="route0" depart="538.69" /><vehicle id="veh34" type="car" route="route0" depart="239.64" /><vehicle id="veh35" type="car" route="route0" depart="131.59" /><vehicle id="veh36" type="car" route="route0" depart="598.52" /><vehicle id="veh37" type="car" route="route0" depart="305.72" /><vehicle id="veh38" type="car" route="route0" depart="54.55" /><vehicle id="veh39" type="car" route="route0" depart="28.27" /><vehicle id="veh40" type="car" route="route0" depart="65.79" /><vehicle id="veh41" type="car" route="route0" depart="376.47" /><vehicle id="veh42" type="car" route="route0" depart="475.25" /><vehicle id="veh43" type="car" route="route0" depart="253.3" /><vehicle id="veh44" type="car" route="route0" depart="38.12" /><vehicle id="veh45" type="car" route="route0" depart="228.97" /><vehicle id="veh46" type="car" route="route0" depart="597.67" /><vehicle id="veh47" type="car" route="route0" depart="317.47" /><vehicle id="veh48" type="car" route="route0" depart="582.65" /><vehicle id="veh49" type="car" route="route0" depart="516.47" /><vehicle id="veh50" type="car" route="route0" depart="6.89" /><vehicle id="veh51" type="car" route="route0" depart="432.43" /><vehicle id="veh52" type="car" route="route0" depart="409.03" /><vehicle id="veh53" type="car" route="route0" depart="322.18" /><vehicle id="veh54" type="car" route="route0" depart="160.1" /><vehicle id="veh55" type="car" route="route0" depart="384.58" /><vehicle id="veh56" type="car" route="route0" depart="66.93" /><vehicle id="veh57" type="car" route="route0" depart="260.86" /><vehicle id="veh58" type="car" route="route0" depart="272.23" /><vehicle id="veh59" type="car" route="route0" depart="572.29" /><vehicle id="veh60" type="car" route="route0" depart="525.51" /><vehicle id="veh61" type="car" route="route0" depart="158.03" /><vehicle id="veh62" type="car" route="route0" depart="300.35" /><vehicle id="veh63" type="car" route="route0" depart="107.19" /><vehicle id="veh64" type="car" route="route0" depart="547.58" /><vehicle id="veh65" type="car" route="route0" depart="522.31" /><vehicle id="veh66" type="car" route="route0" depart="179.07" /><vehicle id="veh67" type="car" route="route0" depart="383.37" /><vehicle id="veh68" type="car" route="route0" depart="365.38" /><vehicle id="veh69" type="car" route="route0" depart="91.7" /><vehicle id="veh70" type="car" route="route0" depart="457.51" /><vehicle id="veh71" type="car" route="route0" depart="323.63" /><vehicle id="veh72" type="car" route="route0" depart="467.18" /><vehicle id="veh73" type="car" route="route0" depart="318.21" /><vehicle id="veh74" type="car" route="route0" depart="0.34" /><vehicle id="veh75" type="car" route="route0" depart="194.49" /><vehicle id="veh76" type="car" route="route0" depart="11.69" /><vehicle id="veh77" type="car" route="route0" depart="557.46" /><vehicle id="veh78" type="car" route="route0" depart="527.23" /><vehicle id="veh79" type="car" route="route0" depart="499.0" /><vehicle id="veh80" type="car" route="route0" depart="184.51" /><vehicle id="veh81" type="car" route="route0" depart="34.76" /><vehicle id="veh82" type="car" route="route0" depart="526.81" /><vehicle id="veh83" type="car" route="route0" depart="568.17" /><vehicle id="veh84" type="car" route="route0" depart="51.39" /><vehicle id="veh85" type="car" route="route0" depart="291.59" /><vehicle id="veh86" type="car" route="route0" depart="41.53" /><vehicle id="veh87" type="car" route="route0" depart="456.36" /><vehicle id="veh88" type="car" route="route0" depart="459.5" /><vehicle id="veh89" type="car" route="route0" depart="77.03" /><vehicle id="veh90" type="car" route="route0" depart="285.17" /><vehicle id="veh91" type="car" route="route0" depart="329.88" /><vehicle id="veh92" type="car" route="route0" depart="159.03" /><vehicle id="veh93" type="car" route="route0" depart="523.46" /><vehicle id="veh94" type="car" route="route0" depart="253.88" /><vehicle id="veh95" type="car" route="route0" depart="127.08" /><vehicle id="veh96" type="car" route="route0" depart="323.58" /><vehicle id="veh97" type="car" route="route0" depart="437.96" /><vehicle id="veh98" type="car" route="route0" depart="120.69" /><vehicle id="veh99" type="car" route="route0" depart="187.03" /><vehicle id="veh100" type="car" route="route0" depart="597.09" /><vehicle id="veh101" type="car" route="route0" depart="389.93" /><vehicle id="veh102" type="car" route="route0" depart="262.86" /><vehicle id="veh103" type="car" route="route0" depart="310.55" /><vehicle id="veh104" type="car" route="route0" depart="72.6" /><vehicle id="veh105" type="car" route="route0" depart="134.82" /><vehicle id="veh106" type="car" route="route0" depart="202.85" /><vehicle id="veh107" type="car" route="route0" depart="352.99" /><vehicle id="veh108" type="car" route="route0" depart="138.07" /><vehicle id="veh109" type="car" route="route0" depart="132.13" /><vehicle id="veh110" type="car" route="route0" depart="42.6" /><vehicle id="veh111" type="car" route="route0" depart="378.66" /><vehicle id="veh112" type="car" route="route0" depart="137.37" /><vehicle id="veh113" type="car" route="route0" depart="543.25" /><vehicle id="veh114" type="car" route="route0" depart="515.78" /><vehicle id="veh115" type="car" route="route0" depart="42.51" /><vehicle id="veh116" type="car" route="route0" depart="142.8" /><vehicle id="veh117" type="car" route="route0" depart="401.39" /><vehicle id="veh118" type="car" route="route0" depart="128.54" /><vehicle id="veh119" type="car" route="route0" depart="79.39" /><vehicle id="veh120" type="car" route="route0" depart="561.31" /><vehicle id="veh121" type="car" route="route0" depart="342.63" /><vehicle id="veh122" type="car" route="route0" depart="283.6" /><vehicle id="veh123" type="car" route="route0" depart="470.77" /><vehicle id="veh124" type="car" route="route0" depart="484.5" /><vehicle id="veh125" type="car" route="route0" depart="114.25" /><vehicle id="veh126" type="car" route="route0" depart="58.16" /><vehicle id="veh127" type="car" route="route0" depart="258.63" /><vehicle id="veh128" type="car" route="route0" depart="254.15" /><vehicle id="veh129" type="car" route="route0" depart="280.21" /><vehicle id="veh130" type="car" route="route0" depart="437.45" /><vehicle id="veh131" type="car" route="route0" depart="404.02" /><vehicle id="veh132" type="car" route="route0" depart="590.5" /><vehicle id="veh133" type="car" route="route0" depart="59.05" /><vehicle id="veh134" type="car" route="route0" depart="241.57" /><vehicle id="veh135" type="car" route="route0" depart="203.58" /><vehicle id="veh136" type="car" route="route0" depart="517.0" /><vehicle id="veh137" type="car" route="route0" depart="149.19" /><vehicle id="veh138" type="car" route="route0" depart="114.13" /><vehicle id="veh139" type="car" route="route0" depart="269.17" /><vehicle id="veh140" type="car" route="route0" depart="253.13" /><vehicle id="veh141" type="car" route="route0" depart="167.13" /><vehicle id="veh142" type="car" route="route0" depart="149.88" /><vehicle id="veh143" type="car" route="route0" depart="553.96" /><vehicle id="veh144" type="car" route="route0" depart="265.88" /><vehicle id="veh145" type="car" route="route0" depart="516.81" /><vehicle id="veh146" type="car" route="route0" depart="330.2" /><vehicle id="veh147" type="car" route="route0" depart="30.35" /><vehicle id="veh148" type="car" route="route0" depart="599.57" /><vehicle id="veh149" type="car" route="route0" depart="501.62" /><vehicle id="veh150" type="car" route="route0" depart="581.4" /><vehicle id="veh151" type="car" route="route0" depart="555.82" /><vehicle id="veh152" type="car" route="route0" depart="509.22" /><vehicle id="veh153" type="car" route="route0" depart="99.79" /><vehicle id="veh154" type="car" route="route0" depart="291.38" /><vehicle id="veh155" type="car" route="route0" depart="128.25" /><vehicle id="veh156" type="car" route="route0" depart="240.62" /><vehicle id="veh157" type="car" route="route0" depart="35.18" /><vehicle id="veh158" type="car" route="route0" depart="227.38" /><vehicle id="veh159" type="car" route="route0" depart="591.19" /><vehicle id="veh160" type="car" route="route0" depart="159.12" /><vehicle id="veh161" type="car" route="route0" depart="470.44" /><vehicle id="veh162" type="car" route="route0" depart="273.01" /><vehicle id="veh163" type="car" route="route0" depart="253.8" /><vehicle id="veh164" type="car" route="route0" depart="574.39" /><vehicle id="veh165" type="car" route="route0" depart="597.25" /><vehicle id="veh166" type="car" route="route0" depart="333.46" /><vehicle id="veh167" type="car" route="route0" depart="431.04" /><vehicle id="veh168" type="car" route="route0" depart="92.88" /><vehicle id="veh169" type="car" route="route0" depart="178.02" /><vehicle id="veh170" type="car" route="route0" depart="581.23" /><vehicle id="veh171" type="car" route="route0" depart="347.51" /><vehicle id="veh172" type="car" route="route0" depart="325.32" /><vehicle id="veh173" type="car" route="route0" depart="448.79" /><vehicle id="veh174" type="car" route="route0" depart="34.3" /><vehicle id="veh175" type="car" route="route0" depart="350.51" /><vehicle id="veh176" type="car" route="route0" depart="301.71" /><vehicle id="veh177" type="car" route="route0" depart="511.63" /><vehicle id="veh178" type="car" route="route0" depart="94.46" /><vehicle id="veh179" type="car" route="route0" depart="576.47" /><vehicle id="veh180" type="car" route="route0" depart="48.07" /><vehicle id="veh181" type="car" route="route0" depart="111.49" /><vehicle id="veh182" type="car" route="route0" depart="357.02" /><vehicle id="veh183" type="car" route="route0" depart="405.13" /><vehicle id="veh184" type="car" route="route0" depart="141.12" /><vehicle id="veh185" type="car" route="route0" depart="71.93" /><vehicle id="veh186" type="car" route="route0" depart="534.17" /><vehicle id="veh187" type="car" route="route0" depart="147.73" /><vehicle id="veh188" type="car" route="route0" depart="356.71" /><vehicle id="veh189" type="car" route="route0" depart="371.63" /><vehicle id="veh190" type="car" route="route0" depart="251.53" /><vehicle id="veh191" type="car" route="route0" depart="350.2" /><vehicle id="veh192" type="car" route="route0" depart="313.67" /><vehicle id="veh193" type="car" route="route0" depart="560.82" /><vehicle id="veh194" type="car" route="route0" depart="122.56" /><vehicle id="veh195" type="car" route="route0" depart="429.72" /><vehicle id="veh196" type="car" route="route0" depart="143.21" /><vehicle id="veh197" type="car" route="route0" depart="237.47" /><vehicle id="veh198" type="car" route="route0" depart="403.01" /><vehicle id="veh199" type="car" route="route0" depart="180.0" /></routes>