<?xml version='1.0' encoding='UTF-8'?>
<routes><vType id="car" accel="1.0" decel="4.5" length="5" minGap="2.5" maxSpeed="25" guiShape="passenger" /><route id="route0" edges="1" /><vehicle id="veh0" type="car" route="route0" depart="193.96" /><vehicle id="veh1" type="car" route="route0" depart="582.11" /><vehicle id="veh2" type="car" route="route0" depart="242.51" /><vehicle id="veh3" type="car" route="route0" depart="308.76" /><vehicle id="veh4" type="car" route="route0" depart="592.87" /><vehicle id="veh5" type="car" route="route0" depart="394.6" /><vehicle id="veh6" type="car" route="route0" depart="325.56" /><vehicle id="veh7" type="car" route="route0" depart="247.95" /><vehicle id="veh8" type="car" route="route0" depart="112.55" /><vehicle id="veh9" type="car" route="route0" depart="217.07" /><vehicle id="veh10" type="car" route="route0" depart="453.87" /><vehicle id="veh11" type="car" route="route0" depart="375.25" /><vehicle id="veh12" type="car" route="route0" depart="455.99" /><vehicle id="veh13" type="car" route="route0" depart="122.13" /><vehicle id="veh14" type="car" route="route0" depart="329.53" /><vehicle id="veh15" type="car" route="route0" depart="556.6" /><vehicle id="veh16" type="car" route="route0" depart="262.87" /><vehicle id="veh17" type="car" route="route0" depart="418.95" /><vehicle id="veh18" type="car" route="route0" depart="72.86" /><vehicle id="veh19" type="car" route="route0" depart="583.89" /><vehicle id="veh20" type="car" route="route0" depart="365.32" /><vehicle id="veh21" type="car" route="route0" depart="143.58" /><vehicle id="veh22" type="car" route="route0" depart="95.03" /><vehicle id="veh23" type="car" route="route0" depart="330.5" /><vehicle id="veh24" type="car" route="route0" depart="331.35" /><vehicle id="veh25" type="car" route="route0" depart="55.93" /><vehicle id="veh26" type="car" route="route0" depart="595.35" /><vehicle id="veh27" type="car" route="route0" depart="547.76" /><vehicle id="veh28" type="car" route="route0" depart="276.87" /><vehicle id="veh29" type="car" route="route0" depart="70.48" /><vehicle id="veh30" type="car" route="route0" depart="499.29" /><vehicle id="veh31" type="car" route="route0" depart="299.03" /><vehicle id="veh32" type="car" route="route0" depart="429.96" /><vehicle id="veh33" type="car" route="route0" depart="305.32" /><vehicle id="veh34" type="car" route="route0" depart="164.05" /><vehicle id="veh35" type="car" route="route0" depart="500.83" /><vehicle id="veh36" type="car" route="route0" depart="588.15" /><vehicle id="veh37" type="car" route="route0" depart="146.24" /><vehicle id="veh38" type="car" route="route0" depart="330.76" /><vehicle id="veh39" type="car" route="route0" depart="230.15" /><vehicle id="veh40" type="car" route="route0" depart="553.12" /><vehicle id="veh41" type="car" route="route0" depart="304.94" /><vehicle id="veh42" type="car" route="route0" depart="527.6" /><vehicle id="veh43" type="car" route="route0" depart="518.42" /><vehicle id="veh44" type="car" route="route0" depart="165.75" /><vehicle id="veh45" type="car" route="route0" depart="474.0" /><vehicle id="veh46" type="car" route="route0" depart="248.97" /><vehicle id="veh47" type="car" route="route0" depart="560.55" /><vehicle id="veh48" type="car" route="route0" depart="304.64" /><vehicle id="veh49" type="car" route="route0" depart="492.33" /><vehicle id="veh50" type="car" route="route0" depart="169.7" /><vehicle id="veh51" type="car" route="route0" depart="179.13" /><vehicle id="veh52" type="car" route="route0" depart="352.16" /><vehicle id="veh53" type="car" route="route0" depart="599.34" /><vehicle id="veh54" type="car" route="route0" depart="293.78" /><vehicle id="veh55" type="car" route="route0" depart="89.16" /><vehicle id="veh56" type="car" route="route0" depart="323.15" /><vehicle id="veh57" type="car" route="route0" depart="207.07" /><vehicle id="veh58" type="car" route="route0" depart="331.15" /><vehicle id="veh59" type="car" route="route0" depart="326.06" /><vehicle id="veh60" type="car" route="route0" depart="273.21" /><vehicle id="veh61" type="car" route="route0" depart="193.07" /><vehicle id="veh62" type="car" route="route0" depart="113.19" /><vehicle id="veh63" type="car" route="route0" depart="418.5" /><vehicle id="veh64" type="car" route="route0" depart="343.08" /><vehicle id="veh65" type="car" route="route0" depart="140.14" /><vehicle id="veh66" type="car" route="route0" depart="465.33" /><vehicle id="veh67" type="car" route="route0" depart="26.19" /><vehicle id="veh68" type="car" route="route0" depart="446.82" /><vehicle id="veh69" type="car" route="route0" depart="423.14" /><vehicle id="veh70" type="car" route="route0" depart="486.85" /><vehicle id="veh71" type="car" route="route0" depart="231.65" /><vehicle id="veh72" type="car" route="route0" depart="398.21" /><vehicle id="veh73" type="car" route="route0" depart="492.45" /><vehicle id="veh74" type="car" route="route0" depart="588.49" /><vehicle id="veh75" type="car" route="route0" depart="297.2" /><vehicle id="veh76" type="car" route="route0" depart="22.21" /><vehicle id="veh77" type="car" route="route0" depart="301.37" /><vehicle id="veh78" type="car" route="route0" depart="354.11" /><vehicle id="veh79" type="car" route="route0" depart="521.82" /><vehicle id="veh80" type="car" route="route0" depart="524.51" /><vehicle id="veh81" type="car" route="route0" depart="264.18" /><vehicle id="veh82" type="car" route="route0" depart="315.57" /><vehicle id="veh83" type="car" route="route0" depart="274.16" /><vehicle id="veh84" type="car" route="route0" depart="433.47" /><vehicle id="veh85" type="car" route="route0" depart="245.99" /><vehicle id="veh86" type="car" route="route0" depart="392.87" /><vehicle id="veh87" type="car" route="route0" depart="92.62" /><vehicle id="veh88" type="car" route="route0" depart="281.69" /><vehicle id="veh89" type="car" route="route0" depart="581.52" /><vehicle id="veh90" type="car" route="route0" depart="203.14" /><vehicle id="veh91" type="car" route="route0" depart="415.62" /><vehicle id="veh92" type="car" route="route0" depart="389.9" /><vehicle id="veh93" type="car" route="route0" depart="511.06" /><vehicle id="veh94" type="car" route="route0" depart="511.4" /><vehicle id="veh95" type="car" route="route0" depart="515.61" /><vehicle id="veh96" type="car" route="route0" depart="228.01" /><vehicle id="veh97" type="car" route="route0" depart="190.0" /><vehicle id="veh98" type="car" route="route0" depart="431.23" /><vehicle id="veh99" type="car" route="route0" depart="455.64" /><vehicle id="veh100" type="car" route="route0" depart="523.43" /><vehicle id="veh101" type="car" route="route0" depart="21.54" /><vehicle id="veh102" type="car" route="route0" depart="41.05" /><vehicle id="veh103" type="car" route="route0" depart="378.7" /><vehicle id="veh104" type="car" route="route0" depart="552.56" /><vehicle id="veh105" type="car" route="route0" depart="598.46" /><vehicle id="veh106" type="car" route="route0" depart="448.06" /><vehicle id="veh107" type="car" route="route0" depart="260.38" /><vehicle id="veh108" type="car" route="route0" depart="59.07" /><vehicle id="veh109" type="car" route="route0" depart="380.25" /><vehicle id="veh110" type="car" route="route0" depart="523.55" /><vehicle id="veh111" type="car" route="route0" depart="266.21" /><vehicle id="veh112" type="car" route="route0" depart="416.4" /><vehicle id="veh113" type="car" route="route0" depart="542.05" /><vehicle id="veh114" type="car" route="route0" depart="27.59" /><vehicle id="veh115" type="car" route="route0" depart="477.69" /><vehicle id="veh116" type="car" route="route0" depart="176.02" /><vehicle id="veh117" type="car" route="route0" depart="224.9" /><vehicle id="veh118" type="car" route="route0" depart="87.34" /><vehicle id="veh119" type="car" route="route0" depart="318.7" /><vehicle id="veh120" type="car" route="route0" depart="339.56" /><vehicle id="veh121" type="car" route="route0" depart="475.51" /><vehicle id="veh122" type="car" route="route0" depart="101.99" /><vehicle id="veh123" type="car" route="route0" depart="47.38" /><vehicle id="veh124" type="car" route="route0" depart="522.5" /><vehicle id="veh125" type="car" route="route0" depart="371.83" /><vehicle id="veh126" type="car" route="route0" depart="144.5" /><vehicle id="veh127" type="car" route="route0" depart="547.7" /><vehicle id="veh128" type="car" route="route0" depart="85.87" /><vehicle id="veh129" type="car" route="route0" depart="276.69" /><vehicle id="veh130" type="car" route="route0" depart="152.39" /><vehicle id="veh131" type="car" route="route0" depart="153.2" /><vehicle id="veh132" type="car" route="route0" depart="5.64" /><vehicle id="veh133" type="car" route="route0" depart="482.78" /><vehicle id="veh134" type="car" route="route0" depart="540.73" /><vehicle id="veh135" type="car" route="route0" depart="406.57" /><vehicle id="veh136" type="car" route="route0" depart="94.79" /><vehicle id="veh137" type="car" route="route0" depart="265.04" /><vehicle id="veh138" type="car" route="route0" depart="207.34" /><vehicle id="veh139" type="car" route="route0" depart="352.54" /><vehicle id="veh140" type="car" route="route0" depart="383.36" /><vehicle id="veh141" type="car" route="route0" depart="254.59" /><vehicle id="veh142" type="car" route="route0" depart="150.06" /><vehicle id="veh143" type="car" route="route0" depart="507.18" /><vehicle id="veh144" type="car" route="route0" depart="119.53" /><vehicle id="veh145" type="car" route="route0" depart="230.82" /><vehicle id="veh146" type="car" route="route0" depart="289.92" /><vehicle id="veh147" type="car" route="route0" depart="142.32" /><vehicle id="veh148" type="car" route="route0" depart="343.15" /><vehicle id="veh149" type="car" route="route0" depart="344.89" /><vehicle id="veh150" type="car" route="route0" depart="595.62" /><vehicle id="veh151" type="car" route="route0" depart="177.14" /><vehicle id="veh152" type="car" route="route0" depart="586.77" /><vehicle id="veh153" type="car" route="route0" depart="394.94" /><vehicle id="veh154" type="car" route="route0" depart="164.69" /><vehicle id="veh155" type="car" route="route0" depart="339.56" /><vehicle id="veh156" type="car" route="route0" depart="411.48" /><vehicle id="veh157" type="car" route="route0" depart="446.8" /><vehicle id="veh158" type="car" route="route0" depart="29.43" /><vehicle id="veh159" type="car" route="route0" depart="363.84" /><vehicle id="veh160" type="car" route="route0" depart="298.04" /><vehicle id="veh161" type="car" route="route0" depart="542.49" /><vehicle id="veh162" type="car" route="route0" depart="171.72" /><vehicle id="veh163" type="car" route="route0" depart="479.32" /><vehicle id="veh164" type="car" route="route0" depart="364.24" /><vehicle id="veh165" type="car" route="route0" depart="211.39" /><vehicle id="veh166" type="car" route="route0" depart="381.97" /><vehicle id="veh167" type="car" route="route0" depart="372.53" /><vehicle id="veh168" type="car" route="route0" depart="406.66" /><vehicle id="veh169" type="car" route="route0" depart="432.56" /><vehicle id="veh170" type="car" route="route0" depart="395.51" /><vehicle id="veh171" type="car" route="route0" depart="503.0" /><vehicle id="veh172" type="car" route="route0" depart="376.95" /><vehicle id="veh173" type="car" route="route0" depart="542.04" /><vehicle id="veh174" type="car" route="route0" depart="387.8" /><vehicle id="veh175" type="car" route="route0" depart="185.36" /><vehicle id="veh176" type="car" route="route0" depart="264.49" /><vehicle id="veh177" type="car" route="route0" depart="347.74" /><vehicle id="veh178" type="car" route="route0" depart="439.42" /><vehicle id="veh179" type="car" route="route0" depart="54.08" /><vehicle id="veh180" type="car" route="route0" depart="177.07" /><vehicle id="veh181" type="car" route="route0" depart="448.49" /><vehicle id="veh182" type="car" route="route0" depart="105.38" /><vehicle id="veh183" type="car" route="route0" depart="79.3" /><vehicle id="veh184" type="car" route="route0" depart="323.64" /><vehicle id="veh185" type="car" route="route0" depart="582.89" /><vehicle id="veh186" type="car" route="route0" depart="318.51" /><vehicle id="veh187" type="car" route="route0" depart="548.09" /><vehicle id="veh188" type="car" route="route0" depart="498.28" /><vehicle id="veh189" type="car" route="route0" depart="154.18" /><vehicle id="veh190" type="car" route="route0" depart="494.81" /><vehicle id="veh191" type="car" route="route0" depart="289.11" /><vehicle id="veh192" type="car" route="route0" depart="483.89" /><vehicle id="veh193" type="car" route="route0" depart="447.94" /><vehicle id="veh194" type="car" route="route0" depart="203.23" /><vehicle id="veh195" type="car" route="route0" depart="69.1" /><vehicle id="veh196" type="car" route="route0" depart="577.74" /><vehicle id="veh197" type="car" route="route0" depart="84.45" /><vehicle id="veh198" type="car" route="route0" depart="579.9" /><vehicle id="veh199" type="car" route="route0" depart="516.08" /><vehicle id="veh200" type="car" route="route0" depart="434.53" /><vehicle id="veh201" type="car" route="route0" depart="587.97" /><vehicle id="veh202" type="car" route="route0" depart="580.36" /><vehicle id="veh203" type="car" route="route0" depart="482.75" /><vehicle id="veh204" type="car" route="route0" depart="219.47" /><vehicle id="veh205" type="car" route="route0" depart="474.41" /><vehicle id="veh206" type="car" route="route0" depart="8.35" /><vehicle id="veh207" type="car" route="route0" depart="321.94" /><vehicle id="veh208" type="car" route="route0" depart="272.87" /><vehicle id="veh209" type="car" route="route0" depart="403.7" /><vehicle id="veh210" type="car" route="route0" depart="403.4" /><vehicle id="veh211" type="car" route="route0" depart="350.74" /><vehicle id="veh212" type="car" route="route0" depart="493.45" /><vehicle id="veh213" type="car" route="route0" depart="564.18" /><vehicle id="veh214" type="car" route="route0" depart="65.01" /><vehicle id="veh215" type="car" route="route0" depart="140.29" /><vehicle id="veh216" type="car" route="route0" depart="15.01" /><vehicle id="veh217" type="car" route="route0" depart="530.54" /><vehicle id="veh218" type="car" route="route0" depart="336.84" /><vehicle id="veh219" type="car" route="route0" depart="549.15" /><vehicle id="veh220" type="car" route="route0" depart="132.82" /><vehicle id="veh221" type="car" route="route0" depart="37.93" /><vehicle id="veh222" type="car" route="route0" depart="494.31" /><vehicle id="veh223" type="car" route="route0" depart="545.63" /><vehicle id="veh224" type="car" route="route0" depart="181.31" /><vehicle id="veh225" type="car" route="route0" depart="244.98" /><vehicle id="veh226" type="car" route="route0" depart="83.87" /><vehicle id="veh227" type="car" route="route0" depart="567.76" /><vehicle id="veh228" type="car" route="route0" depart="182.62" /><vehicle id="veh229" type="car" route="route0" depart="295.57" /><vehicle id="veh230" type="car" route="route0" depart="58.32" /><vehicle id="veh231" type="car" route="route0" depart="532.36" /><vehicle id="veh232" type="car" route="route0" depart="81.4" /><vehicle id="veh233" type="car" route="route0" depart="272.19" /><vehicle id="veh234" type="car" route="route0" depart="402.29" /><vehicle id="veh235" type="car" route="route0" depart="445.88" /><vehicle id="veh236" type="car" route="route0" depart="567.58" /><vehicle id="veh237" type="car" route="route0" depart="251.48" /><vehicle id="veh238" type="car" route="route0" depart="445.36" /><vehicle id="veh239" type="car" route="route0" depart="92.71" /><vehicle id="veh240" type="car" route="route0" depart="248.93" /><vehicle id="veh241" type="car" route="route0" depart="59.41" /><vehicle id="veh242" type="car" route="route0" depart="293.61" /><vehicle id="veh243" type="car" route="route0" depart="244.87" /><vehicle id="veh244" type="car" route="route0" depart="570.91" /><vehicle id="veh245" type="car" route="route0" depart="19.63" /><vehicle id="veh246" type="car" route="route0" depart="222.32" /><vehicle id="veh247" type="car" route="route0" depart="266.03" /><vehicle id="veh248" type="car" route="route0" depart="570.33" /><vehicle id="veh249" type="car" route="route0" depart="513.27" /><vehicle id="veh250" type="car" route="route0" depart="59.61" /><vehicle id="veh251" type="car" route="route0" depart="411.41" /><vehicle id="veh252" type="car" route="route0" depart="326.68" /><vehicle id="veh253" type="car" route="route0" depart="586.71" /><vehicle id="veh254" type="car" route="route0" depart="215.2" /><vehicle id="veh255" type="car" route="route0" depart="238.88" /><vehicle id="veh256" type="car" route="route0" depart="113.89" /><vehicle id="veh257" type="car" route="route0" depart="73.3" /><vehicle id="veh258" type="car" route="route0" depart="508.82" /><vehicle id="veh259" type="car" route="route0" depart="272.83" /><vehicle id="veh260" type="car" route="route0" depart="397.66" /><vehicle id="veh261" type="car" route="route0" depart="385.02" /><vehicle id="veh262" type="car" route="route0" depart="358.29" /><vehicle id="veh263" type="car" route="route0" depart="12.81" /><vehicle id="veh264" type="car" route="route0" depart="472.08" /><vehicle id="veh265" type="car" route="route0" depart="146.14" /><vehicle id="veh266" type="car" route="route0" depart="75.55" /><vehicle id="veh267" type="car" route="route0" depart="338.75" /><vehicle id="veh268" type="car" route="route0" depart="41.17" /><vehicle id="veh269" type="car" route="route0" depart="459.09" /><vehicle id="veh270" type="car" route="route0" depart="124.29" /><vehicle id="veh271" type="car" route="route0" depart="129.57" /><vehicle id="veh272" type="car" route="route0" depart="521.82" /><vehicle id="veh273" type="car" route="route0" depart="197.14" /><vehicle id="veh274" type="car" route="route0" depart="88.53" /><vehicle id="veh275" type="car" route="route0" depart="540.32" /><vehicle id="veh276" type="car" route="route0" depart="1.7" /><vehicle id="veh277" type="car" route="route0" depart="515.04" /><vehicle id="veh278" type="car" route="route0" depart="86.81" /><vehicle id="veh279" type="car" route="route0" depart="78.0" /><vehicle id="veh280" type="car" route="route0" depart="150.39" /><vehicle id="veh281" type="car" route="route0" depart="104.7" /><vehicle id="veh282" type="car" route="route0" depart="396.63" /><vehicle id="veh283" type="car" route="route0" depart="15.47" /><vehicle id="veh284" type="car" route="route0" depart="8.92" /><vehicle id="veh285" type="car" route="route0" depart="473.99" /><vehicle id="veh286" type="car" route="route0" depart="142.76" /><vehicle id="veh287" type="car" route="route0" depart="194.26" /><vehicle id="veh288" type="car" route="route0" depart="104.55" /><vehicle id="veh289" type="car" route="route0" depart="31.44" /><vehicle id="veh290" type="car" route="route0" depart="445.03" /><vehicle id="veh291" type="car" route="route0" depart="315.65" /><vehicle id="veh292" type="car" route="route0" depart="447.4" /><vehicle id="veh293" type="car" route="route0" depart="285.75" /><vehicle id="veh294" type="car" route="route0" depart="466.81" /><vehicle id="veh295" type="car" route="route0" depart="307.94" /><vehicle id="veh296" type="car" route="route0" depart="65.43" /><vehicle id="veh297" type="car" route="route0" depart="302.3" /><vehicle id="veh298" type="car" route="route0" depart="567.25" /><vehicle id="veh299" type="car" route="route0" depart="26.02" /><vehicle id="veh300" type="car" route="route0" depart="469.94" /><vehicle id="veh301" type="car" route="route0" depart="520.19" /><vehicle id="veh302" type="car" route="route0" depart="312.87" /><vehicle id="veh303" type="car" route="route0" depart="274.83" /><vehicle id="veh304" type="car" route="route0" depart="578.42" /><vehicle id="veh305" type="car" route="route0" depart="36.5" /><vehicle id="veh306" type="car" route="route0" depart="287.39" /><vehicle id="veh307" type="car" route="route0" depart="240.97" /><vehicle id="veh308" type="car" route="route0" depart="411.66" /><vehicle id="veh309" type="car" route="route0" depart="294.16" /><vehicle id="veh310" type="car" route="route0" depart="545.82" /><vehicle id="veh311" type="car" route="route0" depart="44.09" /><vehicle id="veh312" type="car" route="route0" depart="48.47" /><vehicle id="veh313" type="car" route="route0" depart="364.98" /><vehicle id="veh314" type="car" route="route0" depart="39.41" /><vehicle id="veh315" type="car" route="route0" depart="165.01" /><vehicle id="veh316" type="car" route="route0" depart="379.85" /><vehicle id="veh317" type="car" route="route0" depart="329.01" /><vehicle id="veh318" type="car" route="route0" depart="195.11" /><vehicle id="veh319" type="car" route="route0" depart="596.78" /><vehicle id="veh320" type="car" route="route0" depart="318.33" /><vehicle id="veh321" type="car" route="route0" depart="272.23" /><vehicle id="veh322" type="car" route="route0" depart="363.26" /><vehicle id="veh323" type="car" route="route0" depart="59.51" /><vehicle id="veh324" type="car" route="route0" depart="421.07" /><vehicle id="veh325" type="car" route="route0" depart="511.68" /><vehicle id="veh326" type="car" route="route0" depart="390.55" /><vehicle id="veh327" type="car" route="route0" depart="461.38" /><vehicle id="veh328" type="car" route="route0" depart="432.5" /><vehicle id="veh329" type="car" route="route0" depart="129.01" /><vehicle id="veh330" type="car" route="route0" depart="270.93" /><vehicle id="veh331" type="car" route="route0" depart="137.1" /><vehicle id="veh332" type="car" route="route0" depart="203.36" /><vehicle id="veh333" type="car" route="route0" depart="272.1" /><vehicle id="veh334" type="car" route="route0" depart="249.59" /><vehicle id="veh335" type="car" route="route0" depart="57.05" /><vehicle id="veh336" type="car" route="route0" depart="256.06" /><vehicle id="veh337" type="car" route="route0" depart="399.06" /><vehicle id="veh338" type="car" route="route0" depart="224.58" /><vehicle id="veh339" type="car" route="route0" depart="91.58" /><vehicle id="veh340" type="car" route="route0" depart="553.79" /><vehicle id="veh341" type="car" route="route0" depart="40.28" /><vehicle id="veh342" type="car" route="route0" depart="499.06" /><vehicle id="veh343" type="car" route="route0" depart="55.94" /><vehicle id="veh344" type="car" route="route0" depart="57.94" /><vehicle id="veh345" type="car" route="route0" depart="443.28" /><vehicle id="veh346" type="car" route="route0" depart="487.06" /><vehicle id="veh347" type="car" route="route0" depart="333.82" /><vehicle id="veh348" type="car" route="route0" depart="351.88" /><vehicle id="veh349" type="car" route="route0" depart="336.95" /><vehicle id="veh350" type="car" route="route0" depart="197.79" /><vehicle id="veh351" type="car" route="route0" depart="73.34" /><vehicle id="veh352" type="car" route="route0" depart="212.16" /><vehicle id="veh353" type="car" route="route0" depart="399.2" /><vehicle id="veh354" type="car" route="route0" depart="450.17" /><vehicle id="veh355" type="car" route="route0" depart="520.86" /><vehicle id="veh356" type="car" route="route0" depart="432.64" /><vehicle id="veh357" type="car" route="route0" depart="581.04" /><vehicle id="veh358" type="car" route="route0" depart="360.25" /><vehicle id="veh359" type="car" route="route0" depart="210.99" /><vehicle id="veh360" type="car" route="route0" depart="346.75" /><vehicle id="veh361" type="car" route="route0" depart="127.64" /><vehicle id="veh362" type="car" route="route0" depart="394.04" /><vehicle id="veh363" type="car" route="route0" depart="134.55" /><vehicle id="veh364" type="car" route="route0" depart="64.93" /><vehicle id="veh365" type="car" route="route0" depart="507.22" /><vehicle id="veh366" type="car" route="route0" depart="220.54" /><vehicle id="veh367" type="car" route="route0" depart="457.56" /><vehicle id="veh368" type="car" route="route0" depart="344.46" /><vehicle id="veh369" type="car" route="route0" depart="484.33" /><vehicle id="veh370" type="car" route="route0" depart="507.09" /><vehicle id="veh371" type="car" route="route0" depart="584.73" /><vehicle id="veh372" type="car" route="route0" depart="491.06" /><vehicle id="veh373" type="car" route="route0" depart="368.14" /><vehicle id="veh374" type="car" route="route0" depart="385.62" /><vehicle id="veh375" type="car" route="route0" depart="15.75" /><vehicle id="veh376" type="car" route="route0" depart="557.45" /><vehicle id="veh377" type="car" route="route0" depart="497.68" /><vehicle id="veh378" type="car" route="route0" depart="160.47" /><vehicle id="veh379" type="car" route="route0" depart="108.25" /><vehicle id="veh380" type="car" route="route0" depart="421.62" /><vehicle id="veh381" type="car" route="route0" depart="185.39" /><vehicle id="veh382" type="car" route="route0" depart="203.89" /><vehicle id="veh383" type="car" route="route0" depart="3.66" /><vehicle id="veh384" type="car" route="route0" depart="521.92" /><vehicle id="veh385" type="car" route="route0" depart="339.79" /><vehicle id="veh386" type="car" route="route0" depart="240.47" /><vehicle id="veh387" type="car" route="route0" depart="85.12" /><vehicle id="veh388" type="car" route="route0" depart="379.9" /><vehicle id="veh389" type="car" route="route0" depart="18.39" /><vehicle id="veh390" type="car" route="route0" depart="447.67" /><vehicle id="veh391" type="car" route="route0" depart="129.08" /><vehicle id="veh392" type="car" route="route0" depart="251.9" /><vehicle id="veh393" type="car" route="route0" depart="204.54" /><vehicle id="veh394" type="car" route="route0" depart="222.03" /><vehicle id="veh395" type="car" route="route0" depart="432.96" /><vehicle id="veh396" type="car" route="route0" depart="466.1" /><vehicle id="veh397" type="car" route="route0" depart="340.56" /><vehicle id="veh398" type="car" route="route0" depart="50.97" /><vehicle id="veh399" type="car" route="route0" depart="31.57" /><vehicle id="veh400" type="car" route="route0" depart="94.45" /><vehicle id="veh401" type="car" route="route0" depart="370.7" /><vehicle id="veh402" type="car" route="route0" depart="404.38" /><vehicle id="veh403" type="car" route="route0" depart="163.26" /><vehicle id="veh404" type="car" route="route0" depart="397.16" /><vehicle id="veh405" type="car" route="route0" depart="291.4" /><vehicle id="veh406" type="car" route="route0" depart="265.23" /><vehicle id="veh407" type="car" route="route0" depart="163.9" /><vehicle id="veh408" type="car" route="route0" depart="452.97" /><vehicle id="veh409" type="car" route="route0" depart="68.29" /><vehicle id="veh410" type="car" route="route0" depart="257.95" /><vehicle id="veh411" type="car" route="route0" depart="169.95" /><vehicle id="veh412" type="car" route="route0" depart="407.09" /><vehicle id="veh413" type="car" route="route0" depart="291.98" /><vehicle id="veh414" type="car" route="route0" depart="400.28" /><vehicle id="veh415" type="car" route="route0" depart="27.25" /><vehicle id="veh416" type="car" route="route0" depart="237.16" /><vehicle id="veh417" type="car" route="route0" depart="359.59" /><vehicle id="veh418" type="car" route="route0" depart="4.61" /><vehicle id="veh419" type="car" route="route0" depart="180.85" /><vehicle id="veh420" type="car" route="route0" depart="126.74" /><vehicle id="veh421" type="car" route="route0" depart="82.34" /><vehicle id="veh422" type="car" route="route0" depart="153.31" /><vehicle id="veh423" type="car" route="route0" depart="196.87" /><vehicle id="veh424" type="car" route="route0" depart="4.64" /><vehicle id="veh425" type="car" route="route0" depart="448.21" /><vehicle id="veh426" type="car" route="route0" depart="105.42" /><vehicle id="veh427" type="car" route="route0" depart="228.12" /><vehicle id="veh428" type="car" route="route0" depart="422.2" /><vehicle id="veh429" type="car" route="route0" depart="300.16" /><vehicle id="veh430" type="car" route="route0" depart="500.01" /><vehicle id="veh431" type="car" route="route0" depart="483.72" /><vehicle id="veh432" type="car" route="route0" depart="43.25" /><vehicle id="veh433" type="car" route="route0" depart="517.06" /><vehicle id="veh434" type="car" route="route0" depart="25.38" /><vehicle id="veh435" type="car" route="route0" depart="11.24" /><vehicle id="veh436" type="car" route="route0" depart="552.7" /><vehicle id="veh437" type="car" route="route0" depart="517.27" /><vehicle id="veh438" type="car" route="route0" depart="345.46" /><vehicle id="veh439" type="car" route="route0" depart="344.04" /><vehicle id="veh440" type="car" route="route0" depart="425.7" /><vehicle id="veh441" type="car" route="route0" depart="250.62" /><vehicle id="veh442" type="car" route="route0" depart="69.1" /><vehicle id="veh443" type="car" route="route0" depart="12.51" /><vehicle id="veh444" type="car" route="route0" depart="194.86" /><vehicle id="veh445" type="car" route="route0" depart="480.79" /><vehicle id="veh446" type="car" route="route0" depart="370.88" /><vehicle id="veh447" type="car" route="route0" depart="499.22" /><vehicle id="veh448" type="car" route="route0" depart="551.86" /><vehicle id="veh449" type="car" route="route0" depart="52.88" /><vehicle id="veh450" type="car" route="route0" depart="506.69" /><vehicle id="veh451" type="car" route="route0" depart="145.99" /><vehicle id="veh452" type="car" route="route0" depart="353.32" /><vehicle id="veh453" type="car" route="route0" depart="314.38" /><vehicle id="veh454" type="car" route="route0" depart="237.46" /><vehicle id="veh455" type="car" route="route0" depart="186.16" /><vehicle id="veh456" type="car" route="route0" depart="203.71" /><vehicle id="veh457" type="car" route="route0" depart="199.84" /><vehicle id="veh458" type="car" route="route0" depart="100.88" /><vehicle id="veh459" type="car" route="route0" depart="306.29" /><vehicle id="veh460" type="car" route="route0" depart="68.42" /><vehicle id="veh461" type="car" route="route0" depart="305.97" /><vehicle id="veh462" type="car" rou